
*** ChampSim Multicore Out-of-Order Simulator ***

Warmup Instructions: 50000000
Simulation Instructions: 250000000
Number of CPUs: 1
Off-chip DRAM Size: 4 GiB Channels: 1 Width: 64-bit Data Rate: 3200 MT/s

VirtualMemory physical capacity: 8588881920 num_ppages: 2096895
VirtualMemory page size: 4096 log2_page_size: 12

CPU 0 runs Trace/401.bzip2-7B.champsimtrace.xz
CPU 0 Bimodal branch predictor
Basic BTB sets: 1024 ways: 8 indirect buffer size: 4096 RAS size: 64



























































Heartbeat CPU 0 instructions: 10000000 cycles: 2993460 heartbeat IPC: 3.34062 cumulative IPC: 3.34062 (Simulation time: 0 hr 0 min 24 sec) 









































4202852 12 | 923891392 4 | 923903168 4 | 923988797 8 | 925280570 4 | 925280676 4 | 925280888 4 | 925280994 4 | 925281206 4 | 925281312 4 | 925307238 4 | 926408000 4 | 926408064 4 | 926408128 4 | 926408192 4 | 1460463688 6 | 


















Heartbeat CPU 0 instructions: 20000003 cycles: 5799704 heartbeat IPC: 3.56348 cumulative IPC: 3.44845 (Simulation time: 0 hr 0 min 46 sec) 


























































923615652 4 | 923616676 4 | 923618724 4 | 923681188 4 | 923682212 4 | 923684260 4 | 923742628 4 | 923743652 4 | 923776420 4 | 923778468 4 | 

Heartbeat CPU 0 instructions: 30000000 cycles: 8389954 heartbeat IPC: 3.86063 cumulative IPC: 3.57571 (Simulation time: 0 hr 1 min 5 sec) 































































Heartbeat CPU 0 instructions: 40000000 cycles: 11326795 heartbeat IPC: 3.40502 cumulative IPC: 3.53145 (Simulation time: 0 hr 1 min 29 sec) 






























926468348 4 | 

































Heartbeat CPU 0 instructions: 50000001 cycles: 14455355 heartbeat IPC: 3.19636 cumulative IPC: 3.45893 (Simulation time: 0 hr 1 min 54 sec) 

Warmup complete CPU 0 instructions: 50000001 cycles: 14455355 (Simulation time: 0 hr 1 min 54 sec) 








































































Heartbeat CPU 0 instructions: 60000000 cycles: 21397250 heartbeat IPC: 1.44053 cumulative IPC: 1.44053 (Simulation time: 0 hr 2 min 15 sec) 






924302016 4 | 924302464 4 | 925254872 4 | 























































923999535 4 | 927003392 4 | 927003456 4 | 927003904 4 | 927003968 4 | 





Heartbeat CPU 0 instructions: 70000000 cycles: 27745275 heartbeat IPC: 1.57529 cumulative IPC: 1.5049 (Simulation time: 0 hr 2 min 38 sec) 
























































Heartbeat CPU 0 instructions: 80000000 cycles: 33094250 heartbeat IPC: 1.86952 cumulative IPC: 1.60954 (Simulation time: 0 hr 3 min 1 sec) 






























































Heartbeat CPU 0 instructions: 90000000 cycles: 39203622 heartbeat IPC: 1.63683 cumulative IPC: 1.61627 (Simulation time: 0 hr 3 min 25 sec) 





























































Heartbeat CPU 0 instructions: 100000000 cycles: 44994742 heartbeat IPC: 1.72678 cumulative IPC: 1.63723 (Simulation time: 0 hr 3 min 47 sec) 



































































Heartbeat CPU 0 instructions: 110000000 cycles: 51918083 heartbeat IPC: 1.44439 cumulative IPC: 1.60159 (Simulation time: 0 hr 4 min 9 sec) 


































































Heartbeat CPU 0 instructions: 120000003 cycles: 57885123 heartbeat IPC: 1.67587 cumulative IPC: 1.6118 (Simulation time: 0 hr 4 min 31 sec) 




















923617536 4 | 



















































Heartbeat CPU 0 instructions: 130000002 cycles: 64482155 heartbeat IPC: 1.51583 cumulative IPC: 1.59914 (Simulation time: 0 hr 4 min 55 sec) 



























































Heartbeat CPU 0 instructions: 140000000 cycles: 70138139 heartbeat IPC: 1.76804 cumulative IPC: 1.6163 (Simulation time: 0 hr 5 min 17 sec) 











































926270716 4 | 



















Heartbeat CPU 0 instructions: 150000003 cycles: 76976076 heartbeat IPC: 1.46243 cumulative IPC: 1.59947 (Simulation time: 0 hr 5 min 39 sec) 



























































Heartbeat CPU 0 instructions: 160000002 cycles: 83737060 heartbeat IPC: 1.47907 cumulative IPC: 1.58772 (Simulation time: 0 hr 6 min 0 sec) 

































927332796 4 | 927350972 4 | 927367612 4 | 927367804 4 | 927368252 4 | 927368636 4 | 927368956 4 | 927369020 4 | 927369084 4 | 927369340 4 | 927370684 4 | 
















25872544 4 | 











Heartbeat CPU 0 instructions: 170000002 cycles: 90458212 heartbeat IPC: 1.48784 cumulative IPC: 1.57889 (Simulation time: 0 hr 6 min 29 sec) 


















































4220486 4 | 926007296 4 | 926007360 4 | 926007424 4 | 926007488 4 | 926007552 4 | 926007616 4 | 926007680 4 | 926007744 4 | 926007808 4 | 926007872 4 | 926007936 4 | 926008000 4 | 926008064 4 | 926008128 4 | 926008192 4 | 926008256 4 | 926008320 4 | 926008384 4 | 926008448 4 | 926008512 4 | 926008576 4 | 926008640 4 | 926008704 4 | 926008832 4 | 926008896 4 | 926008960 4 | 926009024 4 | 926009088 4 | 926009152 4 | 926009216 4 | 926009280 4 | 926009344 4 | 926009408 4 | 926009472 4 | 926009536 4 | 926009600 4 | 926009664 4 | 926009728 4 | 926009792 4 | 926009856 4 | 926009920 4 | 926009984 4 | 926010048 4 | 926010112 4 | 926010176 4 | 926010240 4 | 926010304 4 | 926010368 4 | 926010432 4 | 926010496 4 | 926010560 4 | 926010624 4 | 926010688 4 | 926010752 4 | 926010816 4 | 926010880 4 | 926010944 4 | 926011008 4 | 926011072 4 | 926011136 4 | 926011200 4 | 926011264 4 | 926011328 4 | 926535744 4 | 926535808 4 | 926535872 4 | 926535936 4 | 926536000 4 | 926536064 4 | 926536128 4 | 926536192 4 | 926536256 4 | 926536320 4 | 926536384 4 | 926536448 4 | 926536512 4 | 926536576 4 | 926536640 4 | 926536704 4 | 926536768 4 | 926536832 4 | 926536896 4 | 926537024 4 | 926537088 4 | 926537152 4 | 926537216 4 | 926537280 4 | 926537344 4 | 926537408 4 | 926537472 4 | 926537536 4 | 926537600 4 | 926537664 4 | 926537728 4 | 926537792 4 | 926537856 4 | 926537920 4 | 926537984 4 | 926538048 4 | 926538112 4 | 926538176 4 | 926538240 4 | 926538304 4 | 926538368 4 | 926538432 4 | 926538496 4 | 926538560 4 | 926538624 4 | 926538688 4 | 926538752 4 | 926538816 4 | 926538880 4 | 926538944 4 | 926539008 4 | 926539072 4 | 926539136 4 | 926539200 4 | 926539264 4 | 926539328 4 | 926539392 4 | 926539456 4 | 926539520 4 | 926539584 4 | 926539648 4 | 926539712 4 | 926543872 4 | 926543936 4 | 926544000 4 | 926544064 4 | 926544128 4 | 926544192 4 | 926544256 4 | 926544320 4 | 926544384 4 | 926544448 4 | 926544512 4 | 926544576 4 | 926544640 4 | 926544704 4 | 926544768 4 | 926544832 4 | 926544896 4 | 926544960 4 | 926545024 4 | 926545088 4 | 926545152 4 | 926545216 4 | 926545280 4 | 926545344 4 | 926545408 4 | 926545472 4 | 926545536 4 | 926545600 4 | 926545664 4 | 926545728 4 | 926545792 4 | 926545856 4 | 926545920 4 | 926545984 4 | 926546048 4 | 926546112 4 | 926546176 4 | 926546240 4 | 926546304 4 | 926546368 4 | 926546432 4 | 926546496 4 | 926546560 4 | 926546624 4 | 926546688 4 | 926546752 4 | 926546816 4 | 926546880 4 | 926546944 4 | 926547008 4 | 926547072 4 | 926547136 4 | 926547200 4 | 926547264 4 | 926547328 4 | 926547392 4 | 926547456 4 | 926547520 4 | 926547584 4 | 926547648 4 | 926547712 4 | 926547776 4 | 926547840 4 | 926547904 4 | 926552128 4 | 926552192 4 | 926552256 4 | 926552320 4 | 926552384 4 | 926552448 4 | 926552512 4 | 926552576 4 | 926552640 4 | 926552704 4 | 926552768 4 | 926552832 4 | 926552896 4 | 926552960 4 | 926553024 4 | 926553088 4 | 926553152 4 | 926553216 4 | 926553280 4 | 926553344 4 | 926553408 4 | 926553472 4 | 926553536 4 | 926553600 4 | 926553664 4 | 926553728 4 | 926553792 4 | 926553856 4 | 926553920 4 | 926553984 4 | 926554048 4 | 926554112 4 | 926554176 4 | 926554240 4 | 926554304 4 | 926554368 4 | 926554432 4 | 926554496 4 | 926554560 4 | 926554624 4 | 926554688 4 | 926554752 4 | 926554816 4 | 926554880 4 | 926554944 4 | 926555008 4 | 926555072 4 | 926555136 4 | 926555200 4 | 926555264 4 | 926555328 4 | 926555392 4 | 926555456 4 | 926555520 4 | 926555584 4 | 926555648 4 | 926555712 4 | 926555776 4 | 926555840 4 | 926555904 4 | 926555968 4 | 926556032 4 | 926556096 4 | 926560256 4 | 926560320 4 | 926560384 4 | 926560448 4 | 926560512 4 | 926560576 4 | 926560640 4 | 926560704 4 | 926560768 4 | 926560832 4 | 926560896 4 | 926560960 4 | 926561024 4 | 926561088 4 | 926561152 4 | 926561216 4 | 926561280 4 | 926561344 4 | 926561408 4 | 926561472 4 | 926561536 4 | 926561600 4 | 926561664 4 | 926561728 4 | 926561792 4 | 926561856 4 | 926561920 4 | 926561984 4 | 926562048 4 | 926562112 4 | 926562176 4 | 926562240 4 | 926562304 4 | 926562368 4 | 926562432 4 | 926562496 4 | 926562560 4 | 926562624 4 | 926562688 4 | 926562752 4 | 926562816 4 | 926562880 4 | 926562944 4 | 926563008 4 | 926563072 4 | 926563136 4 | 926563200 4 | 926563264 4 | 926563328 4 | 926563392 4 | 926563456 4 | 926563520 4 | 926563584 4 | 926563648 4 | 926563712 4 | 926563776 4 | 926563840 4 | 926563904 4 | 926563968 4 | 926564032 4 | 926564096 4 | 926564160 4 | 926564224 4 | 926564288 4 | 926568448 4 | 926568512 4 | 926568576 4 | 926568640 4 | 926568704 4 | 926568768 4 | 926568832 4 | 926568896 4 | 926568960 4 | 926569024 4 | 926569088 4 | 926569152 4 | 926569216 4 | 926569280 4 | 926569344 4 | 926569408 4 | 926569472 4 | 926569536 4 | 926569600 4 | 926569664 4 | 926569728 4 | 926569792 4 | 926569856 4 | 926569920 4 | 926569984 4 | 926570048 4 | 926570112 4 | 926570176 4 | 926570240 4 | 926570304 4 | 926570368 4 | 926570432 4 | 926570496 4 | 926570560 4 | 926570624 4 | 926570688 4 | 926570752 4 | 926570816 4 | 926570880 4 | 926570944 4 | 926571008 4 | 926571072 4 | 926571136 4 | 926571200 4 | 926571264 4 | 926571328 4 | 926571392 4 | 926571456 4 | 926571520 4 | 926571584 4 | 926571648 4 | 926571712 4 | 926571776 4 | 926571840 4 | 926571904 4 | 926571968 4 | 926572032 4 | 926572096 4 | 926572160 4 | 926572224 4 | 926572288 4 | 926572352 4 | 926572416 4 | 926572480 4 | 926572544 4 | 926572608 4 | 926572672 4 | 926572736 4 | 926572800 4 | 926572864 4 | 926572928 4 | 926572992 4 | 926573056 4 | 926573120 4 | 926573184 4 | 926573248 4 | 926573312 4 | 926573376 4 | 926573440 4 | 926573504 4 | 926573568 4 | 926573632 4 | 926573696 4 | 926573760 4 | 926573824 4 | 926573888 4 | 926573952 4 | 926574016 4 | 926574080 4 | 926574144 4 | 926574208 4 | 926574272 4 | 926574336 4 | 926574400 4 | 926574464 4 | 926574528 4 | 926574592 4 | 926574656 4 | 926574720 4 | 926574784 4 | 926574848 4 | 926574912 4 | 926574976 4 | 926575040 4 | 926575104 4 | 926575168 4 | 926575232 4 | 926575296 4 | 926575360 4 | 926575424 4 | 926575488 4 | 926575552 4 | 926575616 4 | 926575680 4 | 926575744 4 | 926575808 4 | 926575872 4 | 926575936 4 | 926576000 4 | 926576064 4 | 926576128 4 | 926576192 4 | 926576256 4 | 926576320 4 | 926576384 4 | 926576448 4 | 926576512 4 | 926576576 4 | 926588928 4 | 926588992 4 | 926589056 4 | 926589120 4 | 926589184 4 | 926589248 4 | 926589312 4 | 926589376 4 | 926589440 4 | 926589504 4 | 926589568 4 | 926589632 4 | 926589696 4 | 926589760 4 | 926589824 4 | 926589888 4 | 926589952 4 | 926590016 4 | 926590080 4 | 926590144 4 | 926590208 4 | 926590272 4 | 926590336 4 | 926590400 4 | 926590464 4 | 926590528 4 | 926590592 4 | 926590656 4 | 926590720 4 | 926590784 4 | 926590848 4 | 926590912 4 | 926590976 4 | 926591040 4 | 926591104 4 | 926591168 4 | 926591232 4 | 926591296 4 | 926591360 4 | 926591424 4 | 926591488 4 | 926591552 4 | 926591616 4 | 926591680 4 | 926591744 4 | 926591808 4 | 926591872 4 | 926591936 4 | 926592000 4 | 926592064 4 | 926592128 4 | 926592192 4 | 926592256 4 | 926592320 4 | 926592384 4 | 926592448 4 | 926592512 4 | 926592576 4 | 926592640 4 | 926592704 4 | 926592768 4 | 926592832 4 | 926592896 4 | 926592960 4 | 926601280 4 | 926601344 4 | 926601408 4 | 926601472 4 | 926601536 4 | 926601600 4 | 926601664 4 | 926601728 4 | 926601792 4 | 926601856 4 | 926601920 4 | 926601984 4 | 926602048 4 | 926602112 4 | 926602176 4 | 926602240 4 | 926602304 4 | 926602368 4 | 926602432 4 | 926602496 4 | 926602560 4 | 926602624 4 | 926602688 4 | 926602752 4 | 926602816 4 | 926602880 4 | 926602944 4 | 926603008 4 | 926603072 4 | 926603136 4 | 926603200 4 | 926603264 4 | 926603328 4 | 926603392 4 | 926603456 4 | 926603520 4 | 926603584 4 | 926603648 4 | 926603712 4 | 926603776 4 | 926603840 4 | 926603904 4 | 926603968 4 | 926604032 4 | 926604096 4 | 926604160 4 | 926604224 4 | 926604288 4 | 926604352 4 | 926604416 4 | 926604480 4 | 926604544 4 | 926604608 4 | 926604672 4 | 926604736 4 | 926604800 4 | 926604864 4 | 926604928 4 | 926604992 4 | 926605056 4 | 926605120 4 | 926605184 4 | 926605248 4 | 926617664 4 | 926617728 4 | 926617792 4 | 926617856 4 | 926617920 4 | 926617984 4 | 926618048 4 | 926618112 4 | 926618176 4 | 926618240 4 | 926618304 4 | 926618368 4 | 926618432 4 | 926618496 4 | 926618560 4 | 926618624 4 | 926618688 4 | 926618752 4 | 926618816 4 | 926618880 4 | 926618944 4 | 926619008 4 | 926619072 4 | 926619136 4 | 926619200 4 | 926619264 4 | 926619328 4 | 926619392 4 | 926619456 4 | 926619520 4 | 926619584 4 | 926619648 4 | 926619712 4 | 926619776 4 | 926619840 4 | 926619904 4 | 926619968 4 | 926620032 4 | 926620096 4 | 926620160 4 | 926620224 4 | 926620288 4 | 926620352 4 | 926620416 4 | 926620480 4 | 926620544 4 | 926620608 4 | 926620672 4 | 926620736 4 | 926620800 4 | 926620864 4 | 926620928 4 | 926620992 4 | 926621056 4 | 926621120 4 | 926621184 4 | 926621248 4 | 926621312 4 | 926621376 4 | 926621440 4 | 926621504 4 | 926621568 4 | 926621632 4 | 926621696 4 | 926621760 4 | 926621824 4 | 926621888 4 | 926621952 4 | 926622016 4 | 926622080 4 | 926622144 4 | 926622208 4 | 926622272 4 | 926622336 4 | 926622400 4 | 926622464 4 | 926622528 4 | 926622592 4 | 926622656 4 | 926622720 4 | 926622784 4 | 926622848 4 | 926622912 4 | 926622976 4 | 926623040 4 | 926623104 4 | 926623168 4 | 926623232 4 | 926623296 4 | 926623360 4 | 926623424 4 | 926623488 4 | 926623552 4 | 926623616 4 | 926623680 4 | 926623744 4 | 926623808 4 | 926623872 4 | 926623936 4 | 926624000 4 | 926624064 4 | 926624128 4 | 926624192 4 | 926624256 4 | 926624320 4 | 926624384 4 | 926624448 4 | 926624512 4 | 926624576 4 | 926624640 4 | 926624704 4 | 926624768 4 | 926624832 4 | 926624896 4 | 926624960 4 | 926625024 4 | 926625088 4 | 926625152 4 | 926625216 4 | 926625280 4 | 926625344 4 | 926625408 4 | 926625472 4 | 926625536 4 | 926625600 4 | 926625664 4 | 926625728 4 | 926629888 4 | 926629952 4 | 926630016 4 | 926630080 4 | 926630144 4 | 926630208 4 | 926630272 4 | 926630336 4 | 926630400 4 | 926630464 4 | 926630528 4 | 926630592 4 | 926630656 4 | 926630720 4 | 926630784 4 | 926630848 4 | 926630912 4 | 926630976 4 | 926631040 4 | 926631104 4 | 926631168 4 | 926631232 4 | 926631296 4 | 926631360 4 | 926631424 4 | 926631488 4 | 926631552 4 | 926631616 4 | 926631680 4 | 926631744 4 | 926631808 4 | 926631872 4 | 926631936 4 | 926632000 4 | 926632064 4 | 926632128 4 | 926632192 4 | 926632256 4 | 926632320 4 | 926632384 4 | 926632448 4 | 926632512 4 | 926632576 4 | 926632640 4 | 926632704 4 | 926632768 4 | 926632832 4 | 926632896 4 | 926632960 4 | 926633024 4 | 926633088 4 | 926633152 4 | 926633216 4 | 926633280 4 | 926633344 4 | 926633408 4 | 926633472 4 | 926633536 4 | 926633600 4 | 926633664 4 | 926633728 4 | 926633792 4 | 926633856 4 | 926633920 4 | 926633984 4 | 926634048 4 | 926634112 4 | 926634176 4 | 926634240 4 | 926634304 4 | 926634432 4 | 926634496 4 | 926634560 4 | 926634624 4 | 926634688 4 | 926634752 4 | 926634816 4 | 926634880 4 | 926634944 4 | 926635008 4 | 926635072 4 | 926635136 4 | 926635200 4 | 926635264 4 | 926635328 4 | 926635392 4 | 926635456 4 | 926635520 4 | 926635584 4 | 926635648 4 | 926635712 4 | 926635776 4 | 926635840 4 | 926635904 4 | 926635968 4 | 926636032 4 | 926636096 4 | 926636160 4 | 926636224 4 | 926636288 4 | 926636352 4 | 926636416 4 | 926636480 4 | 926636544 4 | 926636608 4 | 926636672 4 | 926636736 4 | 926636800 4 | 926636864 4 | 926636928 4 | 926636992 4 | 926637056 4 | 926637120 4 | 926637184 4 | 926637248 4 | 926637312 4 | 926637376 4 | 926637440 4 | 926637504 4 | 926637568 4 | 926637632 4 | 926637696 4 | 926637760 4 | 926637824 4 | 926637888 4 | 926637952 4 | 926638016 4 | 926638080 4 | 926638144 4 | 926638208 4 | 926638272 4 | 926638336 4 | 926638400 4 | 926638464 4 | 926638528 4 | 926638592 4 | 926638656 4 | 926638720 4 | 926638784 4 | 926638848 4 | 926638912 4 | 926638976 4 | 926639040 4 | 926639104 4 | 926639168 4 | 926639232 4 | 926639296 4 | 926639360 4 | 926639424 4 | 926639488 4 | 926639552 4 | 926639616 4 | 926639680 4 | 926639744 4 | 926639808 4 | 926639872 4 | 926639936 4 | 926640000 4 | 926640064 4 | 926640128 4 | 926640192 4 | 926640256 4 | 926640320 4 | 926640384 4 | 926640448 4 | 926640512 4 | 926640576 4 | 926640640 4 | 926640704 4 | 926640768 4 | 926640832 4 | 926640896 4 | 926640960 4 | 926641024 4 | 926641088 4 | 926641152 4 | 926641216 4 | 926641280 4 | 926641344 4 | 926641408 4 | 926641472 4 | 926641536 4 | 926641600 4 | 926641664 4 | 926641728 4 | 926641792 4 | 926641856 4 | 926641920 4 | 926641984 4 | 926642048 4 | 926642112 4 | 926642176 4 | 926642240 4 | 926642304 4 | 926642368 4 | 926642432 4 | 926642496 4 | 926642560 4 | 926642688 4 | 926642752 4 | 926642816 4 | 926642880 4 | 926642944 4 | 926643008 4 | 926643072 4 | 926643136 4 | 926643200 4 | 926643264 4 | 926643328 4 | 926643392 4 | 926643456 4 | 926643520 4 | 926643584 4 | 926643648 4 | 926643712 4 | 926643776 4 | 926643840 4 | 926643904 4 | 926643968 4 | 926644032 4 | 926644096 4 | 926644160 4 | 926644224 4 | 926644288 4 | 926644352 4 | 926644416 4 | 926644480 4 | 926644544 4 | 926644608 4 | 926644672 4 | 926644736 4 | 926644800 4 | 926644864 4 | 926644928 4 | 926644992 4 | 926645056 4 | 926645120 4 | 926645184 4 | 926645248 4 | 926645312 4 | 926645376 4 | 926645440 4 | 926645504 4 | 926645568 4 | 926645632 4 | 926645696 4 | 926645760 4 | 926645824 4 | 926645888 4 | 926645952 4 | 926646016 4 | 926646080 4 | 926646144 4 | 926646208 4 | 926691328 4 | 926691392 4 | 926691456 4 | 926691520 4 | 926691584 4 | 926691648 4 | 926691712 4 | 926691776 4 | 926691840 4 | 926691904 4 | 926691968 4 | 926692032 4 | 926692096 4 | 926692160 4 | 926692224 4 | 926692288 4 | 926692352 4 | 926692416 4 | 926692480 4 | 926692544 4 | 926692608 4 | 926692672 4 | 926692736 4 | 926692800 4 | 926692864 4 | 926692928 4 | 926692992 4 | 926693056 4 | 926693120 4 | 926693184 4 | 926693248 4 | 926693312 4 | 926693376 4 | 926693440 4 | 926693504 4 | 926693568 4 | 926693632 4 | 926693696 4 | 926693760 4 | 926693824 4 | 926693888 4 | 926693952 4 | 926694016 4 | 926694080 4 | 926694144 4 | 926694208 4 | 926694272 4 | 926694336 4 | 926694400 4 | 926694464 4 | 926694528 4 | 926694592 4 | 926694656 4 | 926694720 4 | 926694784 4 | 926694848 4 | 926694912 4 | 926694976 4 | 926695040 4 | 926695104 4 | 926695168 4 | 926695232 4 | 926695296 4 | 926695360 4 | 926695424 4 | 926695488 4 | 926695552 4 | 926695616 4 | 926695680 4 | 926695744 4 | 926695808 4 | 926695872 4 | 926695936 4 | 926696000 4 | 926696064 4 | 926696128 4 | 926696192 4 | 926696256 4 | 926696320 4 | 926696384 4 | 926696448 4 | 926696512 4 | 926696576 4 | 926696640 4 | 926696704 4 | 926696768 4 | 926696832 4 | 926696896 4 | 926696960 4 | 926697024 4 | 926697088 4 | 926697152 4 | 926697216 4 | 926697280 4 | 926697344 4 | 926697408 4 | 926697472 4 | 926697536 4 | 926697600 4 | 926697664 4 | 926697728 4 | 926697792 4 | 926697856 4 | 926697920 4 | 926697984 4 | 926698048 4 | 926698112 4 | 926698176 4 | 926698240 4 | 926698304 4 | 926698368 4 | 926698432 4 | 926698496 4 | 926698560 4 | 926698624 4 | 926698688 4 | 926698752 4 | 926698816 4 | 926698880 4 | 926698944 4 | 926699008 4 | 926699072 4 | 926699136 4 | 926699200 4 | 926699264 4 | 926699328 4 | 926699392 4 | 926699456 4 | 926720064 4 | 926720128 4 | 926720192 4 | 926720256 4 | 926720320 4 | 926720384 4 | 926720448 4 | 926720512 4 | 926720576 4 | 926720640 4 | 926720704 4 | 926720768 4 | 926720832 4 | 926720896 4 | 926720960 4 | 926721024 4 | 926721088 4 | 926721152 4 | 926721216 4 | 926721280 4 | 926721344 4 | 926721408 4 | 926721472 4 | 926721536 4 | 926721600 4 | 926721664 4 | 926721728 4 | 926721792 4 | 926721856 4 | 926721920 4 | 926721984 4 | 926722048 4 | 926722112 4 | 926722176 4 | 926722240 4 | 926722304 4 | 926722368 4 | 926722432 4 | 926722496 4 | 926722560 4 | 926722624 4 | 926722688 4 | 926722752 4 | 926722816 4 | 926722880 4 | 926722944 4 | 926723008 4 | 926723072 4 | 926723136 4 | 926723200 4 | 926723264 4 | 926723328 4 | 926723392 4 | 926723456 4 | 926723520 4 | 926723648 4 | 926723712 4 | 926723776 4 | 926723840 4 | 926723904 4 | 926723968 4 | 926724032 4 | 926748736 4 | 926748800 4 | 926748864 4 | 926748928 4 | 926748992 4 | 926749056 4 | 926749120 4 | 926749184 4 | 926749248 4 | 926749312 4 | 926749376 4 | 926749440 4 | 926749504 4 | 926749568 4 | 926749632 4 | 926749696 4 | 926749760 4 | 926749824 4 | 926749888 4 | 926749952 4 | 926750016 4 | 926750080 4 | 926750144 4 | 926750208 4 | 926750272 4 | 926750336 4 | 926750400 4 | 926750464 4 | 926750528 4 | 926750592 4 | 926750656 4 | 926750720 4 | 926750784 4 | 926750848 4 | 926750912 4 | 926750976 4 | 926751040 4 | 926751104 4 | 926751168 4 | 926751232 4 | 926751296 4 | 926751360 4 | 926751424 4 | 926751488 4 | 926751552 4 | 926751616 4 | 926751680 4 | 926751744 4 | 926751808 4 | 926751872 4 | 926751936 4 | 926752000 4 | 926752064 4 | 926752128 4 | 926752192 4 | 926752256 4 | 926752320 4 | 926752384 4 | 926752448 4 | 926752512 4 | 926752576 4 | 926752640 4 | 926752704 4 | 926752832 4 | 926752896 4 | 926752960 4 | 926753024 4 | 926753088 4 | 926753152 4 | 926753216 4 | 926753280 4 | 926753344 4 | 926753408 4 | 926753472 4 | 926753536 4 | 926753600 4 | 926753664 4 | 926753728 4 | 926753792 4 | 926753856 4 | 926753920 4 | 926753984 4 | 926754048 4 | 926754112 4 | 926754176 4 | 926754240 4 | 926754304 4 | 926754368 4 | 926754432 4 | 926754496 4 | 926754560 4 | 926754624 4 | 926754688 4 | 926754752 4 | 926754816 4 | 926754880 4 | 926754944 4 | 926755008 4 | 926755072 4 | 926755136 4 | 926755200 4 | 926755264 4 | 926755328 4 | 926755392 4 | 926755456 4 | 926755520 4 | 926755584 4 | 926755648 4 | 926755712 4 | 926755776 4 | 926755840 4 | 926755904 4 | 926755968 4 | 926756032 4 | 926756096 4 | 926756160 4 | 926756224 4 | 926756288 4 | 926756352 4 | 926756416 4 | 926756480 4 | 926756544 4 | 926756608 4 | 926756672 4 | 926756736 4 | 926756800 4 | 926760960 4 | 926761024 4 | 926761088 4 | 926761152 4 | 926761216 4 | 926761280 4 | 926761344 4 | 926761408 4 | 926761472 4 | 926761536 4 | 926761600 4 | 926761664 4 | 926761728 4 | 926761792 4 | 926761856 4 | 926761920 4 | 926761984 4 | 926762048 4 | 926762112 4 | 926762176 4 | 926762240 4 | 926762304 4 | 926762368 4 | 926762432 4 | 926762496 4 | 926762560 4 | 926762624 4 | 926762688 4 | 926762752 4 | 926762816 4 | 926762880 4 | 926762944 4 | 926763008 4 | 926763072 4 | 926763136 4 | 926763200 4 | 926763264 4 | 926763328 4 | 926763392 4 | 926763456 4 | 926763520 4 | 926763584 4 | 926763648 4 | 926763712 4 | 926763776 4 | 926763840 4 | 926763904 4 | 926763968 4 | 926764032 4 | 926764096 4 | 926764160 4 | 926764224 4 | 926764288 4 | 926764352 4 | 926764416 4 | 926764480 4 | 926764544 4 | 926764608 4 | 926764672 4 | 926764736 4 | 926764800 4 | 926764864 4 | 926764928 4 | 926764992 4 | 926765056 4 | 926765120 4 | 926765184 4 | 926765248 4 | 926765312 4 | 926765376 4 | 926765440 4 | 926765504 4 | 926765568 4 | 926765632 4 | 926765696 4 | 926765760 4 | 926765824 4 | 926765888 4 | 926765952 4 | 926766016 4 | 926766080 4 | 926766144 4 | 926766208 4 | 926766272 4 | 926766336 4 | 926766400 4 | 926766464 4 | 926766528 4 | 926766592 4 | 926766656 4 | 926766720 4 | 926766784 4 | 926766848 4 | 926766912 4 | 926766976 4 | 926767040 4 | 926767104 4 | 926767168 4 | 926767232 4 | 926767296 4 | 926767360 4 | 926767424 4 | 926767488 4 | 926767552 4 | 926767616 4 | 926767680 4 | 926767744 4 | 926767808 4 | 926767872 4 | 926767936 4 | 926768000 4 | 926768064 4 | 926768128 4 | 926768192 4 | 926768256 4 | 926768320 4 | 926768384 4 | 926768448 4 | 926768512 4 | 926768576 4 | 926768640 4 | 926768704 4 | 926768768 4 | 926768832 4 | 926768896 4 | 926768960 4 | 926769024 4 | 926769088 4 | 926769152 4 | 926769216 4 | 926769280 4 | 926769344 4 | 926769408 4 | 926769472 4 | 926769536 4 | 926769600 4 | 926769664 4 | 926769728 4 | 926769792 4 | 926769856 4 | 926769920 4 | 926769984 4 | 926770048 4 | 926770112 4 | 926770176 4 | 926770240 4 | 926770304 4 | 926770368 4 | 926770432 4 | 926770496 4 | 926770560 4 | 926770624 4 | 926770688 4 | 926770752 4 | 926770816 4 | 926770880 4 | 926770944 4 | 926771008 4 | 926771072 4 | 926771136 4 | 926771200 4 | 926771264 4 | 926771328 4 | 926771392 4 | 926771456 4 | 926771520 4 | 926771584 4 | 926771648 4 | 926771712 4 | 926771776 4 | 926771840 4 | 926771904 4 | 926771968 4 | 926772032 4 | 926772096 4 | 926772160 4 | 926772224 4 | 926772288 4 | 926772352 4 | 926772416 4 | 926772480 4 | 926772544 4 | 926772608 4 | 926772672 4 | 926772736 4 | 926772800 4 | 926772864 4 | 926772928 4 | 926772992 4 | 926773056 4 | 926773120 4 | 926793792 4 | 926793856 4 | 926793920 4 | 926793984 4 | 926794048 4 | 926794112 4 | 926794176 4 | 926794240 4 | 926794304 4 | 926794368 4 | 926794432 4 | 926794496 4 | 926794560 4 | 926794624 4 | 926794688 4 | 926794752 4 | 926794816 4 | 926794880 4 | 926794944 4 | 926795008 4 | 926795072 4 | 926795136 4 | 926795200 4 | 926795264 4 | 926795328 4 | 926795392 4 | 926795456 4 | 926795520 4 | 926795584 4 | 926795648 4 | 926795712 4 | 926795776 4 | 926795840 4 | 926795904 4 | 926795968 4 | 926796032 4 | 926796096 4 | 926796160 4 | 926796224 4 | 926796288 4 | 926796352 4 | 926796416 4 | 926796480 4 | 926796544 4 | 926796608 4 | 926796672 4 | 926796736 4 | 926796800 4 | 926796864 4 | 926796928 4 | 926796992 4 | 926797056 4 | 926797120 4 | 926797184 4 | 926797248 4 | 926797312 4 | 926797376 4 | 926797440 4 | 926797504 4 | 926797568 4 | 926797632 4 | 926797696 4 | 926797760 4 | 926814208 4 | 926814272 4 | 926814336 4 | 926814400 4 | 926814464 4 | 926814528 4 | 926814592 4 | 926814656 4 | 926814720 4 | 926814784 4 | 926814848 4 | 926814912 4 | 926814976 4 | 926815040 4 | 926815104 4 | 926815168 4 | 926815232 4 | 926815296 4 | 926815360 4 | 926815424 4 | 926815488 4 | 926815552 4 | 926815616 4 | 926815680 4 | 926815744 4 | 926815808 4 | 926815872 4 | 926815936 4 | 926816000 4 | 926816064 4 | 926816128 4 | 926816192 4 | 926816256 4 | 926816320 4 | 926816384 4 | 926816448 4 | 926816512 4 | 926816576 4 | 926816640 4 | 926816704 4 | 926816768 4 | 926816832 4 | 926816896 4 | 926816960 4 | 926817024 4 | 926817088 4 | 926817152 4 | 926817216 4 | 926817280 4 | 926817344 4 | 926817408 4 | 926817472 4 | 926817536 4 | 926817600 4 | 926817664 4 | 926817728 4 | 926817792 4 | 926817856 4 | 926817920 4 | 926817984 4 | 926818048 4 | 926818112 4 | 926818176 4 | 926818240 4 | 926838848 4 | 926838912 4 | 926838976 4 | 926839040 4 | 926839104 4 | 926839168 4 | 926839232 4 | 926839296 4 | 926839360 4 | 926839424 4 | 926839488 4 | 926839552 4 | 926839616 4 | 926839680 4 | 926839744 4 | 926839808 4 | 926839872 4 | 926839936 4 | 926840000 4 | 926840064 4 | 926840128 4 | 926840192 4 | 926840256 4 | 926840320 4 | 926840384 4 | 926840448 4 | 926840512 4 | 926840576 4 | 926840640 4 | 926840704 4 | 926840768 4 | 926840832 4 | 926840896 4 | 926840960 4 | 926841024 4 | 926841088 4 | 926841152 4 | 926841216 4 | 926841280 4 | 926841344 4 | 926841408 4 | 926841472 4 | 926841536 4 | 926841600 4 | 926841664 4 | 926841728 4 | 926841792 4 | 926841856 4 | 926841920 4 | 926841984 4 | 926842048 4 | 926842112 4 | 926842176 4 | 926842240 4 | 926842304 4 | 926842368 4 | 926842432 4 | 926842496 4 | 926842560 4 | 926842624 4 | 926842688 4 | 926842752 4 | 926842816 4 | 926863424 4 | 926863488 4 | 926863552 4 | 926863616 4 | 926863680 4 | 926863744 4 | 926863808 4 | 926863872 4 | 926863936 4 | 926864000 4 | 926864064 4 | 926864128 4 | 926864192 4 | 926864256 4 | 926864320 4 | 926864384 4 | 926864448 4 | 926864512 4 | 926864576 4 | 926864640 4 | 926864704 4 | 926864768 4 | 926864832 4 | 926864896 4 | 926864960 4 | 926865024 4 | 926865088 4 | 926865152 4 | 926865216 4 | 926865280 4 | 










Heartbeat CPU 0 instructions: 180000003 cycles: 96264156 heartbeat IPC: 1.72237 cumulative IPC: 1.58907 (Simulation time: 0 hr 6 min 46 sec) 








































































Heartbeat CPU 0 instructions: 190000003 cycles: 105020045 heartbeat IPC: 1.14209 cumulative IPC: 1.54586 (Simulation time: 0 hr 7 min 23 sec) 




















































































Heartbeat CPU 0 instructions: 200000001 cycles: 114346639 heartbeat IPC: 1.0722 cumulative IPC: 1.50163 (Simulation time: 0 hr 7 min 55 sec) 























































Heartbeat CPU 0 instructions: 210000000 cycles: 119796657 heartbeat IPC: 1.83486 cumulative IPC: 1.51887 (Simulation time: 0 hr 8 min 24 sec) 























































Heartbeat CPU 0 instructions: 220000000 cycles: 125464528 heartbeat IPC: 1.76433 cumulative IPC: 1.5314 (Simulation time: 0 hr 8 min 54 sec) 









0 4 | 4230202 4 | 25910204 4 | 927285248 4 | 1225175775 6 | 1460469768 4 | 1534878840 4 | 

















































0 40 | 923815952 4 | 









Heartbeat CPU 0 instructions: 230000001 cycles: 129984877 heartbeat IPC: 2.21222 cumulative IPC: 1.55804 (Simulation time: 0 hr 9 min 20 sec) 








































0 62 | 






























Heartbeat CPU 0 instructions: 240000001 cycles: 136942445 heartbeat IPC: 1.43728 cumulative IPC: 1.55118 (Simulation time: 0 hr 9 min 50 sec) 












































































Heartbeat CPU 0 instructions: 250000000 cycles: 144044208 heartbeat IPC: 1.4081 cumulative IPC: 1.54334 (Simulation time: 0 hr 10 min 15 sec) 














0 24 | 924155072 4 | 926281916 4 | 926282044 4 | 926282108 4 | 






















































Heartbeat CPU 0 instructions: 260000002 cycles: 150723916 heartbeat IPC: 1.49707 cumulative IPC: 1.54107 (Simulation time: 0 hr 10 min 38 sec) 









































923887501 4 | 924178623 4 | 926630464 4 | 926631808 4 | 926631936 4 | 




















Heartbeat CPU 0 instructions: 270000001 cycles: 156774119 heartbeat IPC: 1.65284 cumulative IPC: 1.54583 (Simulation time: 0 hr 11 min 0 sec) 




















































925044160 4 | 












Heartbeat CPU 0 instructions: 280000000 cycles: 162788169 heartbeat IPC: 1.66277 cumulative IPC: 1.55057 (Simulation time: 0 hr 11 min 23 sec) 






























































923912609 4 | 923923841 4 | 923924885 4 | 923986337 4 | 923987345 4 | 923999621 4 | 924096932 4 | 924112292 4 | 924117412 4 | 924153252 4 | 924155292 4 | 927421884 4 | 927423932 4 | 927425980 4 | 




Heartbeat CPU 0 instructions: 290000002 cycles: 168822863 heartbeat IPC: 1.65709 cumulative IPC: 1.55473 (Simulation time: 0 hr 11 min 46 sec) 



































































Heartbeat CPU 0 instructions: 300000000 cycles: 174333227 heartbeat IPC: 1.81476 cumulative IPC: 1.56369 (Simulation time: 0 hr 12 min 9 sec) 
Finished CPU 0 instructions: 250000004 cycles: 159877873 cumulative IPC: 1.56369 (Simulation time: 0 hr 12 min 9 sec) 

ChampSim completed all CPUs

Region of Interest Statistics

CPU 0 cumulative IPC: 1.56369 instructions: 250000004 cycles: 159877873
cpu0_DTLB TOTAL     ACCESS:   56758248  HIT:   55994334  MISS:     763914
cpu0_DTLB LOAD      ACCESS:   41485928  HIT:   41046880  MISS:     439048
cpu0_DTLB RFO       ACCESS:   15272320  HIT:   14947454  MISS:     324866
cpu0_DTLB PREFETCH  ACCESS:          0  HIT:          0  MISS:          0
cpu0_DTLB WRITEBACK ACCESS:          0  HIT:          0  MISS:          0
cpu0_DTLB TRANSLATION ACCESS:          0  HIT:          0  MISS:          0
cpu0_DTLB PREFETCH  REQUESTED:          0  ISSUED:          0  USEFUL:          0  USELESS:          0
cpu0_DTLB AVERAGE MISS LATENCY: 9.17412 cycles
cpu0_ITLB TOTAL     ACCESS:   18887102  HIT:   18887094  MISS:          8
cpu0_ITLB LOAD      ACCESS:   18887102  HIT:   18887094  MISS:          8
cpu0_ITLB RFO       ACCESS:          0  HIT:          0  MISS:          0
cpu0_ITLB PREFETCH  ACCESS:          0  HIT:          0  MISS:          0
cpu0_ITLB WRITEBACK ACCESS:          0  HIT:          0  MISS:          0
cpu0_ITLB TRANSLATION ACCESS:          0  HIT:          0  MISS:          0
cpu0_ITLB PREFETCH  REQUESTED:          0  ISSUED:          0  USEFUL:          0  USELESS:          0
cpu0_ITLB AVERAGE MISS LATENCY: 269.75 cycles
cpu0_L1I TOTAL     ACCESS:    2623562  HIT:    2623299  MISS:        263
cpu0_L1I LOAD      ACCESS:    2623562  HIT:    2623299  MISS:        263
cpu0_L1I RFO       ACCESS:          0  HIT:          0  MISS:          0
cpu0_L1I PREFETCH  ACCESS:          0  HIT:          0  MISS:          0
cpu0_L1I WRITEBACK ACCESS:          0  HIT:          0  MISS:          0
cpu0_L1I TRANSLATION ACCESS:          0  HIT:          0  MISS:          0
cpu0_L1I PREFETCH  REQUESTED:          0  ISSUED:          0  USEFUL:          0  USELESS:          0
cpu0_L1I AVERAGE MISS LATENCY: 204.103 cycles
cpu0_STLB TOTAL     ACCESS:     763922  HIT:     763494  MISS:        428
cpu0_STLB LOAD      ACCESS:     439056  HIT:     438774  MISS:        282
cpu0_STLB RFO       ACCESS:     324866  HIT:     324720  MISS:        146
cpu0_STLB PREFETCH  ACCESS:          0  HIT:          0  MISS:          0
cpu0_STLB WRITEBACK ACCESS:          0  HIT:          0  MISS:          0
cpu0_STLB TRANSLATION ACCESS:          0  HIT:          0  MISS:          0
cpu0_STLB PREFETCH  REQUESTED:          0  ISSUED:          0  USEFUL:          0  USELESS:          0
cpu0_STLB AVERAGE MISS LATENCY: 214.36 cycles
cpu0_L1D TOTAL     ACCESS:   64634742  HIT:   61568204  MISS:    3066538
cpu0_L1D LOAD      ACCESS:   38302980  HIT:   35771078  MISS:    2531902
cpu0_L1D RFO       ACCESS:   26331340  HIT:   25796822  MISS:     534518
cpu0_L1D PREFETCH  ACCESS:          0  HIT:          0  MISS:          0
cpu0_L1D WRITEBACK ACCESS:          0  HIT:          0  MISS:          0
cpu0_L1D TRANSLATION ACCESS:        422  HIT:        304  MISS:        118
cpu0_L1D PREFETCH  REQUESTED:          0  ISSUED:          0  USEFUL:          0  USELESS:          0
cpu0_L1D AVERAGE MISS LATENCY: 55.6941 cycles
cpu0_L2C TOTAL     ACCESS:    3812273  HIT:    2614608  MISS:    1197665
cpu0_L2C LOAD      ACCESS:    2532066  HIT:    1787004  MISS:     745062
cpu0_L2C RFO       ACCESS:     534491  HIT:      82279  MISS:     452212
cpu0_L2C PREFETCH  ACCESS:          0  HIT:          0  MISS:          0
cpu0_L2C WRITEBACK ACCESS:     745598  HIT:     745239  MISS:        359
cpu0_L2C TRANSLATION ACCESS:        118  HIT:         86  MISS:         32
cpu0_L2C PREFETCH  REQUESTED:          0  ISSUED:          0  USEFUL:          0  USELESS:          0
cpu0_L2C AVERAGE MISS LATENCY: 114.33 cycles
LLC TOTAL     ACCESS:    1722096  HIT:    1499183  MISS:     222913
LLC LOAD      ACCESS:     743119  HIT:     635881  MISS:     107238
LLC RFO       ACCESS:     452189  HIT:     336655  MISS:     115534
LLC PREFETCH  ACCESS:          0  HIT:          0  MISS:          0
LLC WRITEBACK ACCESS:     526756  HIT:     526625  MISS:        131
LLC TRANSLATION ACCESS:         32  HIT:         22  MISS:         10
LLC PREFETCH  REQUESTED:          0  ISSUED:          0  USEFUL:          0  USELESS:          0
LLC AVERAGE MISS LATENCY: 501.631 cycles

DRAM Statistics
 CHANNEL 0
 RQ ROW_BUFFER_HIT:      43514  ROW_BUFFER_MISS:     176910
 DBUS AVG_CONGESTED_CYCLE:     3.9779
 WQ ROW_BUFFER_HIT:      16430  ROW_BUFFER_MISS:     137636  FULL:        208


CPU 0 Branch Prediction Accuracy: 93.3019% MPKI: 9.9508 Average ROB Occupancy at Mispredict: 47.8344
Branch type MPKI
BRANCH_DIRECT_JUMP: 0.00016
BRANCH_INDIRECT: 0
BRANCH_CONDITIONAL: 9.94991
BRANCH_DIRECT_CALL: 0.000364
BRANCH_INDIRECT_CALL: 0
BRANCH_RETURN: 0.00036

