
*** ChampSim Multicore Out-of-Order Simulator ***

Warmup Instructions: 50000000
Simulation Instructions: 250000000
Number of CPUs: 1
Off-chip DRAM Size: 4 GiB Channels: 1 Width: 64-bit Data Rate: 3200 MT/s

VirtualMemory physical capacity: 8588881920 num_ppages: 2096895
VirtualMemory page size: 4096 log2_page_size: 12

CPU 0 runs Trace/403.gcc-16B.champsimtrace.xz
CPU 0 Bimodal branch predictor
Basic BTB sets: 1024 ways: 8 indirect buffer size: 4096 RAS size: 64









4696429 12 | 48573696 4 | 62783640 4 | 82168520 4 | 84205712 4 | 2400543576 8 | 















































































Heartbeat CPU 0 instructions: 10000003 cycles: 4044558 heartbeat IPC: 2.47246 cumulative IPC: 2.47246 (Simulation time: 0 hr 0 min 31 sec) 





























































































Heartbeat CPU 0 instructions: 20000001 cycles: 8088561 heartbeat IPC: 2.4728 cumulative IPC: 2.47263 (Simulation time: 0 hr 1 min 2 sec) 


























































































Heartbeat CPU 0 instructions: 30000001 cycles: 12132567 heartbeat IPC: 2.4728 cumulative IPC: 2.47268 (Simulation time: 0 hr 1 min 33 sec) 





























































































Heartbeat CPU 0 instructions: 40000000 cycles: 16176605 heartbeat IPC: 2.47278 cumulative IPC: 2.47271 (Simulation time: 0 hr 2 min 4 sec) 



























































































Heartbeat CPU 0 instructions: 50000003 cycles: 20220648 heartbeat IPC: 2.47277 cumulative IPC: 2.47272 (Simulation time: 0 hr 2 min 35 sec) 

Warmup complete CPU 0 instructions: 50000003 cycles: 20220648 (Simulation time: 0 hr 2 min 35 sec) 





























































































Heartbeat CPU 0 instructions: 60000001 cycles: 24710914 heartbeat IPC: 2.22704 cumulative IPC: 2.22704 (Simulation time: 0 hr 3 min 8 sec) 




























































































Heartbeat CPU 0 instructions: 70000000 cycles: 29268980 heartbeat IPC: 2.19391 cumulative IPC: 2.21035 (Simulation time: 0 hr 3 min 41 sec) 




























































































Heartbeat CPU 0 instructions: 80000001 cycles: 33872413 heartbeat IPC: 2.17229 cumulative IPC: 2.19752 (Simulation time: 0 hr 4 min 13 sec) 




























































































Heartbeat CPU 0 instructions: 90000001 cycles: 38412758 heartbeat IPC: 2.20248 cumulative IPC: 2.19876 (Simulation time: 0 hr 4 min 46 sec) 




























































































Heartbeat CPU 0 instructions: 100000003 cycles: 43073277 heartbeat IPC: 2.14568 cumulative IPC: 2.18793 (Simulation time: 0 hr 5 min 19 sec) 





























































































Heartbeat CPU 0 instructions: 110000000 cycles: 47596027 heartbeat IPC: 2.21104 cumulative IPC: 2.19175 (Simulation time: 0 hr 5 min 52 sec) 






































0 4 | 





















































Heartbeat CPU 0 instructions: 120000002 cycles: 52199208 heartbeat IPC: 2.17241 cumulative IPC: 2.18897 (Simulation time: 0 hr 6 min 24 sec) 


























































































Heartbeat CPU 0 instructions: 130000004 cycles: 56697894 heartbeat IPC: 2.22287 cumulative IPC: 2.19315 (Simulation time: 0 hr 6 min 57 sec) 






























































































Heartbeat CPU 0 instructions: 140000004 cycles: 61380774 heartbeat IPC: 2.13544 cumulative IPC: 2.18658 (Simulation time: 0 hr 7 min 30 sec) 









0 6 | 
















































































Heartbeat CPU 0 instructions: 150000000 cycles: 65954997 heartbeat IPC: 2.18616 cumulative IPC: 2.18654 (Simulation time: 0 hr 8 min 2 sec) 




























































































Heartbeat CPU 0 instructions: 160000000 cycles: 70997075 heartbeat IPC: 1.98331 cumulative IPC: 2.16636 (Simulation time: 0 hr 8 min 35 sec) 




























































































Heartbeat CPU 0 instructions: 170000002 cycles: 75594304 heartbeat IPC: 2.17522 cumulative IPC: 2.1671 (Simulation time: 0 hr 9 min 8 sec) 







0 8 | 


























0 6 | 

























































Heartbeat CPU 0 instructions: 180000001 cycles: 80313898 heartbeat IPC: 2.11883 cumulative IPC: 2.1633 (Simulation time: 0 hr 9 min 41 sec) 



























































































Heartbeat CPU 0 instructions: 190000001 cycles: 84972407 heartbeat IPC: 2.14661 cumulative IPC: 2.1621 (Simulation time: 0 hr 10 min 13 sec) 


















































0 5 | 






































0 6 | 

Heartbeat CPU 0 instructions: 200000001 cycles: 89961271 heartbeat IPC: 2.00446 cumulative IPC: 2.15083 (Simulation time: 0 hr 10 min 46 sec) 












0 6 | 












0 22 | 












0 18 | 



















































Heartbeat CPU 0 instructions: 210000000 cycles: 95089631 heartbeat IPC: 1.94994 cumulative IPC: 2.13707 (Simulation time: 0 hr 11 min 19 sec) 















0 6 | 











0 6 | 













0 12 | 

















































Heartbeat CPU 0 instructions: 220000000 cycles: 100015941 heartbeat IPC: 2.02992 cumulative IPC: 2.13045 (Simulation time: 0 hr 11 min 51 sec) 






























0 3 | 












0 9 | 
















































Heartbeat CPU 0 instructions: 230000000 cycles: 104629102 heartbeat IPC: 2.16771 cumulative IPC: 2.13249 (Simulation time: 0 hr 12 min 24 sec) 



























































































Heartbeat CPU 0 instructions: 240000001 cycles: 109289912 heartbeat IPC: 2.14555 cumulative IPC: 2.13317 (Simulation time: 0 hr 12 min 57 sec) 























































0 18 | 




































Heartbeat CPU 0 instructions: 250000002 cycles: 113947069 heartbeat IPC: 2.14723 cumulative IPC: 2.13387 (Simulation time: 0 hr 13 min 30 sec) 





























0 8 | 












0 6 | 
















































Heartbeat CPU 0 instructions: 260000000 cycles: 118641907 heartbeat IPC: 2.13 cumulative IPC: 2.13369 (Simulation time: 0 hr 14 min 3 sec) 





























































































Heartbeat CPU 0 instructions: 270000001 cycles: 123268274 heartbeat IPC: 2.16152 cumulative IPC: 2.13494 (Simulation time: 0 hr 14 min 35 sec) 




























































































Heartbeat CPU 0 instructions: 280000004 cycles: 128019655 heartbeat IPC: 2.10465 cumulative IPC: 2.1336 (Simulation time: 0 hr 15 min 8 sec) 


0 4 | 
























































































Heartbeat CPU 0 instructions: 290000003 cycles: 132672339 heartbeat IPC: 2.1493 cumulative IPC: 2.13425 (Simulation time: 0 hr 15 min 41 sec) 




























































































Heartbeat CPU 0 instructions: 300000000 cycles: 137262986 heartbeat IPC: 2.17834 cumulative IPC: 2.13598 (Simulation time: 0 hr 16 min 13 sec) 
Finished CPU 0 instructions: 250000004 cycles: 117042340 cumulative IPC: 2.13598 (Simulation time: 0 hr 16 min 13 sec) 

ChampSim completed all CPUs

Region of Interest Statistics

CPU 0 cumulative IPC: 2.13598 instructions: 250000004 cycles: 117042340
cpu0_DTLB TOTAL     ACCESS:   41137603  HIT:   40862126  MISS:     275477
cpu0_DTLB LOAD      ACCESS:    1822905  HIT:    1754918  MISS:      67987
cpu0_DTLB RFO       ACCESS:   39314698  HIT:   39107208  MISS:     207490
cpu0_DTLB PREFETCH  ACCESS:          0  HIT:          0  MISS:          0
cpu0_DTLB WRITEBACK ACCESS:          0  HIT:          0  MISS:          0
cpu0_DTLB TRANSLATION ACCESS:          0  HIT:          0  MISS:          0
cpu0_DTLB PREFETCH  REQUESTED:          0  ISSUED:          0  USEFUL:          0  USELESS:          0
cpu0_DTLB AVERAGE MISS LATENCY: 10.7958 cycles
cpu0_ITLB TOTAL     ACCESS:   20760344  HIT:   20758228  MISS:       2116
cpu0_ITLB LOAD      ACCESS:   20760344  HIT:   20758228  MISS:       2116
cpu0_ITLB RFO       ACCESS:          0  HIT:          0  MISS:          0
cpu0_ITLB PREFETCH  ACCESS:          0  HIT:          0  MISS:          0
cpu0_ITLB WRITEBACK ACCESS:          0  HIT:          0  MISS:          0
cpu0_ITLB TRANSLATION ACCESS:          0  HIT:          0  MISS:          0
cpu0_ITLB PREFETCH  REQUESTED:          0  ISSUED:          0  USEFUL:          0  USELESS:          0
cpu0_ITLB AVERAGE MISS LATENCY: 9.11342 cycles
cpu0_L1I TOTAL     ACCESS:    1191705  HIT:    1182071  MISS:       9634
cpu0_L1I LOAD      ACCESS:    1191705  HIT:    1182071  MISS:       9634
cpu0_L1I RFO       ACCESS:          0  HIT:          0  MISS:          0
cpu0_L1I PREFETCH  ACCESS:          0  HIT:          0  MISS:          0
cpu0_L1I WRITEBACK ACCESS:          0  HIT:          0  MISS:          0
cpu0_L1I TRANSLATION ACCESS:          0  HIT:          0  MISS:          0
cpu0_L1I PREFETCH  REQUESTED:          0  ISSUED:          0  USEFUL:          0  USELESS:          0
cpu0_L1I AVERAGE MISS LATENCY: 30.45 cycles
cpu0_STLB TOTAL     ACCESS:     277593  HIT:     275341  MISS:       2252
cpu0_STLB LOAD      ACCESS:      70103  HIT:      67923  MISS:       2180
cpu0_STLB RFO       ACCESS:     207490  HIT:     207418  MISS:         72
cpu0_STLB PREFETCH  ACCESS:          0  HIT:          0  MISS:          0
cpu0_STLB WRITEBACK ACCESS:          0  HIT:          0  MISS:          0
cpu0_STLB TRANSLATION ACCESS:          0  HIT:          0  MISS:          0
cpu0_STLB PREFETCH  REQUESTED:          0  ISSUED:          0  USEFUL:          0  USELESS:          0
cpu0_STLB AVERAGE MISS LATENCY: 218.619 cycles
cpu0_L1D TOTAL     ACCESS:   16256769  HIT:    3875870  MISS:   12380899
cpu0_L1D LOAD      ACCESS:    1884732  HIT:    1717416  MISS:     167316
cpu0_L1D RFO       ACCESS:   14369791  HIT:    2157210  MISS:   12212581
cpu0_L1D PREFETCH  ACCESS:          0  HIT:          0  MISS:          0
cpu0_L1D WRITEBACK ACCESS:          0  HIT:          0  MISS:          0
cpu0_L1D TRANSLATION ACCESS:       2246  HIT:       1244  MISS:       1002
cpu0_L1D PREFETCH  REQUESTED:          0  ISSUED:          0  USEFUL:          0  USELESS:          0
cpu0_L1D AVERAGE MISS LATENCY: 26.4051 cycles
cpu0_L2C TOTAL     ACCESS:   24646971  HIT:   15839737  MISS:    8807234
cpu0_L2C LOAD      ACCESS:     176950  HIT:      41206  MISS:     135744
cpu0_L2C RFO       ACCESS:   12212581  HIT:    3542093  MISS:    8670488
cpu0_L2C PREFETCH  ACCESS:          0  HIT:          0  MISS:          0
cpu0_L2C WRITEBACK ACCESS:   12256438  HIT:   12256438  MISS:          0
cpu0_L2C TRANSLATION ACCESS:       1002  HIT:          0  MISS:       1002
cpu0_L2C PREFETCH  REQUESTED:          0  ISSUED:          0  USEFUL:          0  USELESS:          0
cpu0_L2C AVERAGE MISS LATENCY: 21.6759 cycles
LLC TOTAL     ACCESS:   17505707  HIT:   17467292  MISS:      38415
LLC LOAD      ACCESS:     135744  HIT:      99404  MISS:      36340
LLC RFO       ACCESS:    8670488  HIT:    8668570  MISS:       1918
LLC PREFETCH  ACCESS:          0  HIT:          0  MISS:          0
LLC WRITEBACK ACCESS:    8698473  HIT:    8698316  MISS:        157
LLC TRANSLATION ACCESS:       1002  HIT:       1002  MISS:          0
LLC PREFETCH  REQUESTED:          0  ISSUED:          0  USEFUL:          0  USELESS:          0
LLC AVERAGE MISS LATENCY: 154.959 cycles

DRAM Statistics
 CHANNEL 0
 RQ ROW_BUFFER_HIT:       3560  ROW_BUFFER_MISS:      34698
 DBUS AVG_CONGESTED_CYCLE:    3.91185
 WQ ROW_BUFFER_HIT:       2073  ROW_BUFFER_MISS:       2059  FULL:          0


CPU 0 Branch Prediction Accuracy: 99.4524% MPKI: 1.07488 Average ROB Occupancy at Mispredict: 43.373
Branch type MPKI
BRANCH_DIRECT_JUMP: 2.8e-05
BRANCH_INDIRECT: 0.034496
BRANCH_CONDITIONAL: 1.0403
BRANCH_DIRECT_CALL: 4e-06
BRANCH_INDIRECT_CALL: 4.8e-05
BRANCH_RETURN: 4e-06

