
*** ChampSim Multicore Out-of-Order Simulator ***

Warmup Instructions: 50000000
Simulation Instructions: 250000000
Number of CPUs: 1
Off-chip DRAM Size: 4 GiB Channels: 1 Width: 64-bit Data Rate: 3200 MT/s

VirtualMemory physical capacity: 8588881920 num_ppages: 2096895
VirtualMemory page size: 4096 log2_page_size: 12

CPU 0 runs Trace/429.mcf-22B.champsimtrace.xz
CPU 0 Bimodal branch predictor
Basic BTB sets: 1024 ways: 8 indirect buffer size: 4096 RAS size: 64













0 5 | 4199122 12 | 420714264 4 | 435615640 4 | 435845056 4 | 436632192 4 | 469160920 4 | 469763584 4 | 502721792 4 | 502739072 8 | 503316864 4 | 511914880 6 | 569895296 4 | 570436224 4 | 704207616 4 | 704662272 4 | 972832256 4 | 973169536 4 | 1509872896 4 | 1510081664 6 | 1526696576 4 | 1526744960 4 | 2172563424 4 | 2174742712 6 | 
















0 11 | 419430360 4 | 421517800 4 | 435587200 4 | 444301312 4 | 504791168 4 | 575033472 4 | 714514688 4 | 989853440 4 | 989939840 4 | 1543513472 4 | 1551524608 4 | 











0 21 | 435650560 4 | 435651584 4 | 436682240 4 | 439979968 4 | 444377088 4 | 470759808 4 | 502724736 4 | 578469248 4 | 721422464 4 | 989636992 4 | 1006078080 4 | 1006637312 4 | 1543280256 4 | 1560284160 4 | 1577061888 4 | 2174992344 4 | 





















0 10 | 444547968 4 | 471429120 4 | 720907264 4 | 1593844736 4 | 






Heartbeat CPU 0 instructions: 10000003 cycles: 2515191 heartbeat IPC: 3.97584 cumulative IPC: 3.97584 (Simulation time: 0 hr 0 min 22 sec) 





0 5 | 419430360 4 | 436156544 4 | 436166784 4 | 472291968 4 | 508996224 4 | 720961664 4 | 1006340352 4 | 1023043968 4 | 1023411584 4 | 1577097856 4 | 1610616960 4 | 1627408000 4 | 






0 16 | 6908000 4 | 437944704 4 | 440304536 4 | 440305088 4 | 445027392 4 | 502816640 4 | 570050432 4 | 586708352 4 | 704517888 4 | 720960896 4 | 737833728 4 | 973452928 4 | 1006338944 4 | 1040084608 4 | 1040277120 4 | 1511322880 4 | 1577094912 4 | 1611303296 4 | 1643963008 4 | 1644287104 4 | 




0 20 | 419430360 4 | 420241944 4 | 420241992 4 | 420242136 4 | 420242184 4 | 420242328 4 | 420242376 4 | 420242520 4 | 420242568 4 | 420242712 4 | 420242760 4 | 420242904 4 | 420242952 4 | 420243096 4 | 420243144 4 | 420243288 4 | 420243336 4 | 420243480 4 | 420243528 4 | 420243672 4 | 420243720 4 | 420243864 4 | 420243912 4 | 420244056 4 | 420244104 4 | 420244248 4 | 420244296 4 | 420244440 4 | 420244488 4 | 420244632 4 | 420244680 4 | 420244824 4 | 420244872 4 | 420245016 4 | 420245064 4 | 420245208 4 | 420245256 4 | 420245400 4 | 420245448 4 | 420245592 4 | 420245640 4 | 420245784 4 | 420245832 4 | 420245976 4 | 420246024 4 | 420246168 4 | 420246216 4 | 420246360 4 | 420246408 4 | 420246552 4 | 420246600 4 | 420246744 4 | 420246792 4 | 420246936 4 | 420246984 4 | 420247128 4 | 420247176 4 | 420247320 4 | 420247368 4 | 420247512 4 | 420247560 4 | 420247704 4 | 420247752 4 | 420247896 4 | 420247944 4 | 420248088 4 | 420248136 4 | 420248280 4 | 420248328 4 | 420248472 4 | 420248520 4 | 420248664 4 | 420248712 4 | 420248856 4 | 420248904 4 | 420249048 4 | 420249096 4 | 420249240 4 | 420249288 4 | 420249432 4 | 420249480 4 | 420249624 4 | 420249672 4 | 420249816 4 | 420249864 4 | 420250008 4 | 420250056 4 | 420250200 4 | 420250248 4 | 420250392 4 | 420250440 4 | 420250584 4 | 420250632 4 | 420250776 4 | 420250824 4 | 420250968 4 | 420251016 4 | 420251160 4 | 420251208 4 | 420251352 4 | 420251400 4 | 420251544 4 | 420251592 4 | 420251736 4 | 420251784 4 | 420251928 4 | 420251976 4 | 420252120 4 | 420252168 4 | 420252312 4 | 420252360 4 | 420252504 4 | 420252552 4 | 420252696 4 | 420252744 4 | 420252888 4 | 420252936 4 | 420253080 4 | 420253128 4 | 420253272 4 | 420253320 4 | 420253464 4 | 420253512 4 | 420253656 4 | 420253704 4 | 420253896 3 | 421437336 4 | 436764832 4 | 436764864 4 | 436764928 4 | 437948544 4 | 445038784 4 | 454508672 4 | 511284480 4 | 586986112 4 | 738171904 4 | 738213120 4 | 1646509952 4 | 2173775856 4 | 2174486696 4 | 2174486768 3 | 2174486800 4 | 2174487008 4 | 2174487080 4 | 2174487112 4 | 2174487216 4 | 2174487288 4 | 2174487320 4 | 2174487420 4 | 2174487424 4 | 2174487528 4 | 2174487600 4 | 2174487632 4 | 2174487736 4 | 2174487840 4 | 2174487912 4 | 2174487944 4 | 2174488048 4 | 2174488120 4 | 2174488152 4 | 2174488252 4 | 2174488256 4 | 2174488360 4 | 2174488432 4 | 2174488464 4 | 2174488672 4 | 2174488744 4 | 2174488776 4 | 2174488880 4 | 2174488952 4 | 2174488984 4 | 2174489084 4 | 2174489088 4 | 2174489192 4 | 2174489264 4 | 2174489400 4 | 2174489504 4 | 2174489576 4 | 2174489608 4 | 2174489712 4 | 2174489784 4 | 2174489816 4 | 2174489916 4 | 2174489920 4 | 2174490024 4 | 2174490096 4 | 2174490128 4 | 2174490232 4 | 2174490336 4 | 2174490408 4 | 2174490544 4 | 2174490616 4 | 2174490648 4 | 2174490748 4 | 2174490752 4 | 2174490856 4 | 2174490928 4 | 2174490960 4 | 2174491064 4 | 2174491168 4 | 2174491240 4 | 2174491272 4 | 2174491376 4 | 2174491448 4 | 2174491580 4 | 2174491584 4 | 2174491688 4 | 2174491760 4 | 2174491792 4 | 2174491896 4 | 2174492000 4 | 2174492072 4 | 2174492104 4 | 2174492208 4 | 2174492280 4 | 2174492312 4 | 2174492412 4 | 2174492416 4 | 2174492520 4 | 2174492592 4 | 2174492728 4 | 2174492832 4 | 2174492904 4 | 2174492936 4 | 2174493040 4 | 2174493112 4 | 







0 23 | 586733056 4 | 587212544 4 | 1039900928 4 | 1647530112 4 | 1661037440 4 | 2175078352 4 | 


















0 6 | 437992856 4 | 437992896 4 | 454807936 4 | 474206208 4 | 512827392 4 | 586584960 4 | 744550528 4 | 1056984832 4 | 1660526208 4 | 1677733248 4 | 2174541816 4 | 












0 11 | 435890176 4 | 514237696 4 | 586941952 4 | 754915456 4 | 755004928 4 | 1056447744 4 | 1073809664 4 | 1646455296 4 | 1677312640 4 | 1694514816 4 | 1711285888 4 | 











0 8 | 445743360 4 | 516459136 4 | 1711009920 4 | 1728060288 4 | 1744854784 4 | 









0 4 | 6908000 4 | 419430360 4 | 435904512 4 | 456159232 4 | 601623552 4 | 767664256 4 | 1089940480 4 | 1090647552 4 | 1761513472 4 | 1761623680 4 | 





0 26 | 419430360 4 | 421433304 4 | 438177920 4 | 601533696 4 | 1100340480 4 | 1765097984 4 | 

Heartbeat CPU 0 instructions: 20000004 cycles: 5176077 heartbeat IPC: 3.75815 cumulative IPC: 3.86393 (Simulation time: 0 hr 0 min 46 sec) 










0 10 | 502810240 4 | 519468160 4 | 520097408 4 | 570037504 4 | 586909184 4 | 603882752 4 | 603983360 4 | 704492032 4 | 754364416 4 | 771259776 4 | 771782272 4 | 973401088 4 | 1040887936 4 | 1073145984 4 | 1107317248 4 | 1511219200 4 | 1646193024 4 | 1710709120 4 | 1746222720 4 | 1778516352 4 | 1795241088 4 | 



















0 11 | 440930432 4 | 446277824 4 | 446277888 4 | 603470336 4 | 778043648 4 | 1107132672 4 | 1120567424 4 | 1124163072 4 | 1795082112 4 | 1811329664 4 | 1811940480 4 | 2174635936 4 | 











0 9 | 420265944 4 | 457466624 4 | 787927552 4 | 788536832 4 | 1107007872 4 | 1140272128 4 | 1140873088 4 | 1778432896 4 | 1828740608 4 | 1845571328 4 | 





















0 5 | 419430360 4 | 435669952 4 | 435670016 4 | 435756992 4 | 435757504 4 | 435933184 4 | 436976384 4 | 438369792 4 | 441179968 4 | 446705920 4 | 480080896 4 | 614805504 4 | 1862353408 4 | 









Heartbeat CPU 0 instructions: 30000000 cycles: 7719590 heartbeat IPC: 3.93157 cumulative IPC: 3.88622 (Simulation time: 0 hr 1 min 8 sec) 


0 19 | 435626944 4 | 438432000 4 | 511914880 4 | 788337024 4 | 1157407232 4 | 1157640576 4 | 1846599168 4 | 1879142272 4 | 1895830656 4 | 2175053808 4 | 












0 14 | 458785024 4 | 519506048 4 | 603429120 4 | 620702208 4 | 620763264 4 | 771275392 4 | 788360448 4 | 804743680 4 | 805349760 4 | 1106967808 4 | 1173904512 4 | 1174422656 4 | 1846693120 4 | 1912603264 4 | 1929386112 4 | 














0 6 | 529976960 4 | 620158848 4 | 815353856 4 | 1173886592 4 | 1191149696 4 | 1191206912 4 | 1946167168 4 | 























0 5 | 438550272 4 | 447451136 4 | 530946176 4 | 625491584 4 | 815400192 4 | 1191045760 4 | 1962855808 4 | 1962936320 4 | 2174214112 4 | 











0 16 | 419430360 4 | 435676416 4 | 483427712 4 | 620149888 4 | 628078336 4 | 804716928 4 | 820568576 4 | 1173850880 4 | 1190835584 4 | 1205554176 4 | 1912118784 4 | 1946088192 4 | 1979729280 4 | 








Heartbeat CPU 0 instructions: 40000003 cycles: 10258046 heartbeat IPC: 3.9394 cumulative IPC: 3.89938 (Simulation time: 0 hr 1 min 31 sec) 



0 11 | 420904920 4 | 435771520 4 | 441617408 4 | 459769600 4 | 484081664 4 | 821791104 4 | 822090368 4 | 1207963904 4 | 1996551424 4 | 2175037376 4 | 













0 6 | 460157312 4 | 821857920 4 | 1224720128 4 | 1224759168 4 | 2013310976 4 | 











0 7 | 420257688 4 | 438694016 4 | 502791424 4 | 519554944 4 | 536897152 4 | 569999872 4 | 603526912 4 | 620157696 4 | 636948096 4 | 637550592 4 | 704416768 4 | 771470848 4 | 804732544 4 | 821967872 4 | 838313216 4 | 838928512 4 | 855643776 4 | 973250560 4 | 1107358720 4 | 1173882240 4 | 1242274176 4 | 1258596608 4 | 1275118592 4 | 1510918144 4 | 1779134592 4 | 1912181504 4 | 1981122816 4 | 2029880064 4 | 2030102656 4 | 2048965376 4 | 2063958400 4 | 2081610368 4 | 2097967104 4 | 2114654208 4 | 








0 12 | 435595392 4 | 503317120 4 | 549092736 4 | 553779712 4 | 570505216 4 | 640105856 4 | 654314240 4 | 671100032 4 | 688002944 4 | 704753408 4 | 855408384 4 | 872732928 4 | 889574528 4 | 906617216 4 | 923044864 4 | 940423040 4 | 956538752 4 | 973502848 4 | 1292194944 4 | 1309882880 4 | 1326638848 4 | 1343566080 4 | 1359954048 4 | 1376187008 4 | 1392970368 4 | 1410506880 4 | 1428719360 4 | 1443010176 4 | 1460531584 4 | 1477494656 4 | 1494402304 4 | 1511422720 4 | 2071766272 4 | 2131632640 4 | 2148807040 4 | 










0 5 | 419852184 4 | 435599552 4 | 435599616 4 | 435616320 4 | 435649728 4 | 435649792 4 | 435850176 4 | 469689216 4 | 502728576 4 | 520097536 4 | 587266048 4 | 604061312 4 | 721451136 4 | 738557952 4 | 755086208 4 | 771761920 4 | 989904512 4 | 1007028864 4 | 1023547008 4 | 1041533056 4 | 1057330944 4 | 1073821184 4 | 1090697984 4 | 1107613184 4 | 1528145024 4 | 1544226048 4 | 1561394560 4 | 1577482752 4 | 1594875648 4 | 1611511040 4 | 1627898112 4 | 1647483264 4 | 1661542144 4 | 1678154880 4 | 1695224576 4 | 1711602816 4 | 1729208960 4 | 1745812992 4 | 1762953344 4 | 1778985472 4 | 









0 6 | 435593344 4 | 435763200 4 | 436251648 4 | 436920448 4 | 438257920 4 | 447119512 4 | 486726400 4 | 505831424 4 | 533364096 4 | 537869952 4 | 576079872 4 | 620781568 4 | 640156928 4 | 716576896 4 | 788601216 4 | 805369856 4 | 822176128 4 | 844731008 4 | 857281024 4 | 997570944 4 | 1124486784 4 | 1141026688 4 | 1157846272 4 | 1174586368 4 | 1191476736 4 | 1208260608 4 | 1225826304 4 | 1253879040 4 | 1263967104 4 | 1278979200 4 | 1559558912 4 | 1795908864 4 | 1813390720 4 | 1828929024 4 | 1846470400 4 | 1862505856 4 | 1880109696 4 | 1895884928 4 | 1912909568 4 | 1930347136 4 | 1947370496 4 | 1963122304 4 | 1980938240 4 | 1997317888 4 | 2016069760 4 | 2030786048 4 | 2050328832 4 | 2072175232 4 | 2092351232 4 | 2107580928 4 | 2114390016 4 | 







0 15 | 419430360 4 | 435584768 4 | 435590144 4 | 435590272 4 | 435590528 4 | 435591168 4 | 435597184 4 | 435599616 4 | 435599808 4 | 435599872 4 | 435600448 4 | 435600768 4 | 435601280 4 | 435601344 4 | 435614464 4 | 435614528 4 | 435614592 4 | 435615744 6 | 435616384 4 | 435619072 4 | 435619712 4 | 435619968 4 | 435641792 4 | 435642368 4 | 435642624 4 | 435645952 4 | 435652992 4 | 435653312 4 | 435653376 4 | 435653696 4 | 435653760 4 | 435653888 4 | 435654144 4 | 435654528 4 | 435654592 4 | 435656128 4 | 435668992 4 | 435677208 4 | 435689408 4 | 435689600 4 | 435689728 4 | 435701696 4 | 435701760 4 | 435702400 4 | 435705728 4 | 435707392 4 | 435708952 4 | 435709056 4 | 435712896 4 | 435722528 4 | 435723904 4 | 435724064 4 | 435724160 4 | 435726080 4 | 435726720 4 | 435727616 4 | 435728320 4 | 435754944 4 | 435755008 4 | 435810304 4 | 435825280 4 | 435825664 4 | 435827200 4 | 435835200 4 | 435835264 4 | 435836928 4 | 435839104 4 | 435840960 4 | 435841024 4 | 435842304 4 | 435842560 4 | 435849472 4 | 435851520 4 | 435870144 4 | 435870208 4 | 435872384 4 | 435873792 4 | 435874688 4 | 435876224 4 | 435881984 4 | 436037696 4 | 436037760 4 | 436055552 4 | 436071360 4 | 436071424 4 | 436074368 4 | 436087192 4 | 436091008 4 | 436099008 4 | 436099072 4 | 436102144 4 | 436103168 4 | 436119552 4 | 436135936 4 | 436149696 4 | 436149760 4 | 436155288 4 | 436155328 4 | 436164608 4 | 436167552 4 | 436465176 4 | 436528128 4 | 436591616 4 | 436620288 4 | 436620544 4 | 436623384 4 | 436691968 4 | 436727744 4 | 436727808 4 | 436755968 4 | 437472768 4 | 437473280 4 | 437536704 4 | 437536768 4 | 437657600 4 | 437732352 4 | 437794880 4 | 437794944 4 | 437798784 4 | 437909656 4 | 437909760 4 | 438863808 4 | 438863872 4 | 439362560 4 | 439593216 4 | 439745024 4 | 440018880 4 | 440018944 4 | 440236544 4 | 440259584 4 | 440275328 4 | 442144896 4 | 442163200 4 | 443142272 4 | 444936128 4 | 444936192 4 | 444967680 4 | 445220864 4 | 448706816 4 | 448743424 4 | 450701568 4 | 486459776 4 | 554926464 4 | 589790976 4 | 658737536 4 | 674270080 4 | 688398720 4 | 724729728 4 | 743999104 4 | 756815616 4 | 807925888 4 | 881892224 4 | 893729152 4 | 912957312 4 | 924758784 4 | 941214464 4 | 966936448 4 | 989523840 4 | 1013876608 4 | 1028422400 4 | 1052415360 4 | 1061327232 4 | 1078048256 4 | 1104862336 4 | 1130938880 4 | 1308027648 4 | 1324301568 4 | 1328201600 4 | 1351875328 4 | 1368473472 4 | 1390331648 4 | 1392715648 4 | 1413934592 4 | 1435947136 4 | 1446846080 4 | 1470599936 4 | 1484814464 4 | 1498290048 4 | 1511847936 4 | 1564040704 4 | 1592170240 4 | 1608315904 4 | 1621261952 4 | 1636826496 4 | 1660697088 4 | 1669247744 4 | 1687071488 4 | 1695353088 4 | 1720513664 4 | 1743029632 4 | 1748162816 4 | 1774141824 4 | 1781174272 4 | 1826294912 4 | 1884145024 4 | 2145027584 4 | 2153439488 4 | 







0 4 | 435622144 4 | 435659136 4 | 435663488 4 | 435664000 4 | 435736192 4 | 435741824 4 | 435743360 4 | 435745152 4 | 435745280 4 | 435881240 4 | 435883456 4 | 435883520 4 | 435883648 4 | 435900736 4 | 435900800 4 | 435907712 4 | 435994624 4 | 436125696 4 | 436183448 4 | 436184512 4 | 436184576 4 | 436189208 4 | 436189312 4 | 436193944 4 | 436204056 4 | 436204096 4 | 436218560 4 | 436218624 4 | 436231576 4 | 436231616 4 | 436770816 4 | 436786176 4 | 436790272 4 | 436794880 4 | 436805016 4 | 436825280 4 | 436825344 4 | 436854336 4 | 436854400 4 | 436880384 4 | 437989504 4 | 438008320 4 | 438027160 4 | 438027200 4 | 438027264 4 | 438177688 4 | 438177728 4 | 438177792 4 | 438181504 4 | 440396096 4 | 440396160 4 | 440471488 4 | 440471552 4 | 440772608 4 | 445209368 4 | 445209408 4 | 445209472 4 | 445360064 4 | 445360128 4 | 445962368 4 | 454835968 4 | 454973824 4 | 456341888 4 | 918237824 4 | 1074956544 4 | 1344835328 4 | 1599589248 4 | 1611457024 4 | 1660929152 4 | 1677835520 4 | 1849990656 4 | 1886311936 4 | 2149200768 4 | 








Heartbeat CPU 0 instructions: 50000000 cycles: 12803352 heartbeat IPC: 3.9288 cumulative IPC: 3.90523 (Simulation time: 0 hr 1 min 54 sec) 

Warmup complete CPU 0 instructions: 50000004 cycles: 12803353 (Simulation time: 0 hr 1 min 54 sec) 






0 28 | 435593216 4 | 435593280 4 | 435593344 4 | 435593472 4 | 435593536 4 | 435593600 4 | 435603584 4 | 435603968 4 | 435604096 4 | 435606272 4 | 435623296 4 | 435623680 4 | 435624192 4 | 435624448 4 | 435625600 4 | 435663744 4 | 435664256 4 | 435665024 4 | 435665344 4 | 435666048 4 | 435667968 4 | 435744640 4 | 435745944 4 | 435746072 4 | 435746176 4 | 435747096 4 | 435747840 4 | 435749248 4 | 435751424 4 | 435753088 4 | 435909016 4 | 435909056 4 | 435909120 4 | 435909376 4 | 435909504 4 | 435911360 4 | 435911552 4 | 435912640 4 | 435919296 4 | 435919360 4 | 435920000 4 | 435923096 4 | 435923136 4 | 435923200 4 | 435924096 4 | 436235264 4 | 436235904 4 | 436236096 4 | 436236160 4 | 436242328 4 | 436242368 4 | 436242432 4 | 436248448 4 | 436255744 4 | 436256920 4 | 436257024 4 | 436263424 4 | 436265344 4 | 436786240 4 | 436786304 4 | 436887616 4 | 436887680 4 | 436889344 4 | 436901784 4 | 436901824 4 | 436901888 4 | 436928512 4 | 436931008 4 | 436943896 4 | 436943936 4 | 436944000 4 | 436947776 4 | 436947840 4 | 438181376 4 | 438183488 4 | 438183552 4 | 438194624 4 | 438194688 4 | 438195840 4 | 438220800 4 | 438304984 4 | 438305024 4 | 438312832 4 | 440808832 4 | 440858752 4 | 441027200 4 | 445209600 4 | 445976960 4 | 445985304 4 | 446034816 4 | 446134552 4 | 446134656 4 | 446471448 4 | 446471488 4 | 446471552 4 | 454836352 4 | 456387840 4 | 456686272 4 | 456686336 4 | 457360128 4 | 521114240 4 | 539260416 4 | 553750272 4 | 604077952 4 | 604410752 4 | 642937984 4 | 657435136 4 | 671273856 4 | 689323008 4 | 721432576 4 | 743646464 4 | 764896128 4 | 773238656 4 | 806292480 4 | 850293120 4 | 861181568 4 | 879287424 4 | 889420288 4 | 908252416 4 | 942983552 4 | 993708544 4 | 1007282176 4 | 1024098432 4 | 1051710080 4 | 1057550976 4 | 1094209280 4 | 1108551424 4 | 1124927488 4 | 1177001984 4 | 1192919040 4 | 1230419456 4 | 1257991040 4 | 1265003264 4 | 1286780288 4 | 1322991872 4 | 1341831808 4 | 1343257728 4 | 1374198400 4 | 1380921856 4 | 1409236608 4 | 1422255488 4 | 1442485632 4 | 1450084992 4 | 1466859264 4 | 1490024576 4 | 1505245568 4 | 1512734336 4 | 1527676800 4 | 1551834240 4 | 1572663168 4 | 1578981504 4 | 1605273344 4 | 1612614016 4 | 1628419712 4 | 1667837312 4 | 1679721088 4 | 1752835584 4 | 1773424896 4 | 1781519872 4 | 1805955712 4 | 1816214144 4 | 1828393472 4 | 1833384704 4 | 1870587904 4 | 1918420992 4 | 1960505600 4 | 1982358144 4 | 2025256064 4 | 2040189184 4 | 2047686656 4 | 2094396416 4 | 2102295680 4 | 2130624128 4 | 2137977728 4 | 2174529440 4 | 2175037376 4 | 










0 23 | 435592704 4 | 435612096 4 | 435621848 4 | 435628032 4 | 435631040 4 | 435641344 4 | 435642392 4 | 435643904 3 | 435652864 4 | 435668928 4 | 435668992 4 | 435669656 4 | 435669760 4 | 435670656 4 | 435671552 4 | 435677208 4 | 435677312 6 | 435679104 4 | 435693568 4 | 435732480 4 | 435741184 4 | 435752920 4 | 435755008 4 | 435757248 4 | 435757312 4 | 435757568 4 | 435758360 4 | 435758464 4 | 435759616 4 | 435760896 4 | 435765248 4 | 435769472 4 | 435773568 4 | 435824640 4 | 435845632 4 | 435882008 4 | 435882048 4 | 435882112 4 | 435900376 4 | 435927168 4 | 435931648 4 | 435933120 4 | 435933848 4 | 435937664 4 | 435947456 4 | 435947520 4 | 435955928 4 | 435955968 4 | 435964184 4 | 435964224 4 | 435964288 4 | 435967936 4 | 435968000 4 | 435970072 4 | 435970176 4 | 435972224 4 | 436181144 4 | 436181248 4 | 436206616 4 | 436263296 4 | 436265880 4 | 436265984 4 | 436280448 4 | 436283328 4 | 436283392 4 | 436284824 4 | 436284864 4 | 436297216 4 | 436299776 4 | 436353024 4 | 436357504 4 | 436439680 4 | 436476288 4 | 436779416 4 | 436779456 4 | 436853120 4 | 436948888 4 | 436948992 4 | 436983744 4 | 436983808 4 | 436986776 4 | 436986816 4 | 436986880 4 | 437004696 4 | 437092248 4 | 437128192 4 | 437245952 4 | 437681152 4 | 437976064 4 | 438012288 4 | 438314904 4 | 438314944 4 | 438315008 4 | 438384600 4 | 438384640 4 | 438390744 4 | 438390784 4 | 438439936 4 | 438601728 4 | 439395328 4 | 440109056 4 | 440582144 4 | 441047040 4 | 441186432 4 | 441198720 4 | 441620608 4 | 441735552 4 | 496582528 4 | 540643840 4 | 606812288 4 | 645704704 4 | 688826880 4 | 788774400 4 | 793743232 4 | 805624832 4 | 1078361856 4 | 1113101184 4 | 1141965952 4 | 1158051840 4 | 1175904384 4 | 1191233536 4 | 1208440192 4 | 1300407168 4 | 1624724992 4 | 1647247488 4 | 1683740800 4 | 1700166912 4 | 1714217088 4 | 1715649920 4 | 1744475520 4 | 1810969856 4 | 1848348928 4 | 1869776000 4 | 1893181568 4 | 1898383872 4 | 1918551296 4 | 1940828800 4 | 1958703360 4 | 1979207680 4 | 1981298048 4 | 1999554048 4 | 2074776064 4 | 2151362816 4 | 




















0 58 | 6908000 4 | 419430360 4 | 435782528 4 | 441921536 4 | 463007744 4 | 1283056256 4 | 2149283200 4 | 2173923324 4 | 






















0 24 | 447344640 4 | 486079360 4 | 503765632 4 | 536613888 4 | 536907648 4 | 552370304 4 | 554433920 4 | 571948416 4 | 588817536 4 | 608543104 4 | 623739520 4 | 653693056 4 | 673284864 4 | 690088832 4 | 708313856 4 | 727331840 4 | 742052224 4 | 760765184 4 | 781503360 4 | 811896192 4 | 826101760 4 | 839554944 4 | 871803136 4 | 890944512 4 | 910986752 4 | 924247680 4 | 944594816 4 | 958664960 4 | 981044864 4 | 992281088 4 | 1020700800 4 | 1024020992 4 | 1048521600 4 | 1057551232 4 | 1085947520 4 | 1110606848 4 | 1127423744 4 | 1141145344 4 | 1188209408 4 | 1216620544 4 | 1233580800 4 | 1243028224 4 | 1308023296 4 | 1332128128 4 | 1346306048 4 | 1360668928 4 | 1386390656 4 | 1408717056 4 | 1412912384 4 | 1442277760 4 | 1453606784 4 | 1473723520 4 | 1481779968 4 | 1494971392 4 | 1526506880 4 | 1529127296 4 | 1548979200 4 | 1593249536 4 | 1605818624 4 | 1612459136 4 | 1660919552 4 | 1661460352 4 | 1714861952 4 | 1736312192 4 | 1785630720 4 | 1819264512 4 | 1842493568 4 | 1919382656 4 | 1940835968 4 | 1946510208 4 | 1995912704 4 | 1997757568 4 | 2050473600 4 | 2174312392 4 | 










0 10 | 419430360 4 | 520185728 4 | 570491264 4 | 587600896 4 | 604788480 4 | 620903168 4 | 655065728 4 | 672180480 4 | 739618816 4 | 788575360 4 | 806223360 4 | 874548480 4 | 908777984 4 | 944334720 4 | 1043654784 4 | 1081125376 4 | 1092009984 4 | 1112404992 4 | 1128733952 4 | 1141303552 4 | 1158900224 4 | 1177976960 4 | 1194243328 4 | 1210812928 4 | 1260298880 4 | 1277003136 4 | 1313514112 4 | 1327396224 4 | 1346625408 4 | 1360659200 4 | 1563327360 4 | 1587036032 4 | 1614254848 4 | 1634169856 4 | 1651726592 4 | 1666665216 4 | 1679606784 4 | 1697421184 4 | 1725332736 4 | 1728143232 4 | 1748434304 4 | 1764673280 4 | 1789227136 4 | 1801647232 4 | 1819759872 4 | 1829294080 4 | 1845970304 4 | 1865125376 4 | 1880596608 4 | 1902024704 4 | 1933522432 4 | 1968629376 4 | 1986042880 4 | 2067442688 4 | 2085014912 4 | 2099412224 4 | 2118423296 4 | 2135214336 4 | 2150967168 4 | 





0 13 | 6908000 4 | 419430360 4 | 435589184 4 | 435595328 4 | 435607488 4 | 435607744 4 | 435607808 4 | 435632128 4 | 438794240 4 | 461273216 4 | 486537344 4 | 537230848 4 | 552633344 4 | 555201920 4 | 638878848 4 | 642190336 4 | 654764288 4 | 674820992 4 | 842174848 4 | 848797824 4 | 861323264 4 | 873945600 4 | 889236224 4 | 914059008 4 | 935199104 4 | 1248766720 4 | 1287063680 4 | 1298058368 4 | 1312308352 4 | 1327350016 4 | 1342889472 4 | 1368331008 4 | 1392449792 4 | 1392535168 4 | 1434815360 4 | 2020958592 4 | 2031574784 4 | 2061944576 4 | 2085413504 4 | 2088442624 4 | 2111048576 4 | 2114389248 4 | 2138544512 4 | 2160533760 4 | 








0 11 | 435595264 4 | 435595776 4 | 435605504 4 | 435607552 4 | 435648448 4 | 435697624 4 | 435705880 4 | 435720192 4 | 435742720 4 | 435750912 4 | 435759104 4 | 435763200 4 | 435783680 4 | 435865624 4 | 435931072 4 | 435931136 4 | 435943424 4 | 435968000 4 | 436090880 4 | 436164608 4 | 436263040 4 | 436598784 4 | 437024768 4 | 437188736 4 | 448827648 4 | 485961856 4 | 504628224 4 | 573673600 4 | 590533760 4 | 608343808 4 | 691046784 4 | 711764224 4 | 724739840 4 | 744982528 4 | 755539072 4 | 781104768 4 | 791719936 4 | 811165312 4 | 939964544 4 | 962511104 4 | 987945472 4 | 991183488 4 | 1013896832 4 | 1026997376 4 | 1054382208 4 | 1062689280 4 | 1075495296 4 | 1097904128 4 | 1123731200 4 | 1126626688 4 | 1147856896 4 | 1163432064 4 | 1186747648 4 | 1194322176 4 | 1212409984 4 | 1225300224 4 | 1422032896 4 | 1444346240 4 | 1465454592 4 | 1489439360 4 | 1501801856 4 | 1540308096 4 | 1546784128 4 | 1568195456 4 | 1577299456 4 | 1608049664 4 | 1618411904 4 | 1640455808 4 | 1652019840 4 | 1673181568 4 | 1691057920 4 | 1708054016 4 | 1715407744 4 | 1740029440 4 | 1760225408 4 | 1761846656 4 | 1779971200 4 | 1798118912 4 | 1817670400 4 | 1838327040 4 | 1860130944 4 | 1865087360 4 | 1891281280 4 | 1895995264 4 | 1914199680 4 | 1937912320 4 | 1953061504 4 | 1969155584 4 | 1989237120 4 | 2009062528 4 | 2015017600 4 | 2037936256 4 | 2084496512 4 | 2175148028 4 | 









Heartbeat CPU 0 instructions: 60000000 cycles: 48152858 heartbeat IPC: 0.282889 cumulative IPC: 0.282889 (Simulation time: 0 hr 2 min 58 sec) 

0 11 | 435595264 4 | 453002240 4 | 503318656 4 | 536285184 4 | 553085312 4 | 570458112 4 | 688036352 4 | 704823680 4 | 940489856 4 | 956353664 4 | 974064384 4 | 989895808 4 | 1445396864 4 | 1463297408 4 | 1476570496 4 | 1493577856 4 | 1510551168 4 | 1528254720 4 | 1544208768 4 | 2147968640 4 | 





















0 8 | 502702976 4 | 587210880 4 | 722116864 4 | 737683712 4 | 738403584 4 | 754996352 4 | 1007113088 4 | 1024028928 4 | 1040332544 4 | 1058964736 4 | 1074409728 4 | 1560310272 4 | 1578826240 4 | 1594374528 4 | 1612474880 4 | 1628481280 4 | 1645082240 4 | 1661726720 4 | 1682346496 4 | 1695172096 4 | 1713230336 4 | 2174533600 4 | 














0 11 | 419430360 4 | 435900416 4 | 502704000 4 | 519944192 4 | 520185728 4 | 604305408 4 | 704067456 4 | 754366208 4 | 773027840 4 | 788856064 4 | 972552064 4 | 1090703744 4 | 1110472832 4 | 1124083584 4 | 1142129152 4 | 1157805824 4 | 1644014848 4 | 1728561792 4 | 1745824640 4 | 1764140288 4 | 1785362688 4 | 1798133120 4 | 1812584192 4 | 1828725248 4 | 1848675328 4 | 1863322752 4 | 1879511808 4 | 1896340992 4 | 













0 10 | 435588096 4 | 435593216 4 | 435594176 4 | 435746816 4 | 436238336 4 | 519477760 4 | 528238464 4 | 536880128 4 | 569819392 4 | 620140800 4 | 620893952 4 | 637539456 4 | 806205056 4 | 823340416 4 | 838879232 4 | 972528768 4 | 1176827264 4 | 1191211520 4 | 1211097984 4 | 1225044352 4 | 1241526144 4 | 1509474688 4 | 1917788672 4 | 1930373504 4 | 1946840064 4 | 1964198528 4 | 1989092992 4 | 2000950784 4 | 2013267712 4 | 2035720960 4 | 2047021568 4 | 2174914552 4 | 












0 9 | 448365824 4 | 486544384 4 | 1241397120 4 | 1257870592 4 | 1258319744 4 | 2063521664 4 | 2063611264 4 | 2080393472 4 | 2174361584 4 | 













0 8 | 419430360 4 | 485952000 4 | 486980096 4 | 637059456 4 | 838536064 4 | 855052544 4 | 855642752 4 | 1275097472 4 | 2097197312 4 | 2113944704 4 | 








Heartbeat CPU 0 instructions: 70000002 cycles: 75849427 heartbeat IPC: 0.361056 cumulative IPC: 0.317228 (Simulation time: 0 hr 3 min 59 sec) 




0 10 | 435634688 4 | 435789824 4 | 438893568 4 | 442204160 4 | 448825472 4 | 462068096 4 | 647616256 4 | 1283716224 4 | 1291871616 4 | 2130634880 4 | 2130780544 4 | 2147512704 4 | 2175053808 4 | 














0 11 | 421093272 4 | 485963520 4 | 489095104 4 | 536344192 4 | 637105408 4 | 654262912 4 | 654315136 4 | 838627968 4 | 872421760 4 | 1241673088 4 | 1291778944 4 | 1308642816 4 | 2047763328 4 | 2115164800 4 | 












0 7 | 439063552 4 | 442696448 4 | 889151360 4 | 889202176 4 | 1325401728 4 | 1342295808 4 | 














0 5 | 435611136 4 | 436033920 4 | 485960064 4 | 536337280 4 | 551997184 4 | 553651456 4 | 637091712 4 | 671093248 4 | 838600448 4 | 905980672 4 | 1241617920 4 | 1310516992 4 | 1342078848 4 | 1358980224 4 | 1375795584 4 | 2047652864 4 | 













0 11 | 496335744 4 | 670496000 4 | 905409024 4 | 922768000 4 | 1392639232 4 | 1409309696 4 | 



















0 5 | 419430360 4 | 466280448 4 | 558375168 4 | 681218048 4 | 922647296 4 | 1426104320 4 | 2174025664 4 | 







0 10 | 561083520 4 | 686584192 4 | 937585408 4 | 1425478144 4 | 



0 22 | 419430360 4 | 419904216 4 | 419904264 3 | 419904408 4 | 419904456 4 | 419904600 4 | 419904648 4 | 419904792 4 | 419904840 4 | 419904984 4 | 419905032 4 | 419905176 4 | 419905224 4 | 419905368 4 | 419905416 4 | 419905560 4 | 419905608 4 | 419905752 4 | 419905800 4 | 419905944 4 | 419905992 4 | 419906136 4 | 419906184 4 | 419906328 4 | 419906376 4 | 419906520 4 | 419906568 4 | 419906712 4 | 419906760 4 | 419906904 4 | 419906952 4 | 419907096 4 | 419907144 4 | 419907288 4 | 419907336 4 | 419907480 4 | 419907528 4 | 419907672 4 | 419907720 4 | 419907864 4 | 419907912 4 | 419908056 4 | 419908104 4 | 419908248 4 | 419908296 4 | 419908440 4 | 419908488 4 | 419908632 4 | 419908680 4 | 419908824 4 | 419908872 4 | 419909016 4 | 419909064 4 | 419909208 4 | 419909256 4 | 419909400 4 | 419909448 4 | 419909592 4 | 419909640 4 | 419909784 4 | 419909832 4 | 419910024 4 | 419910216 4 | 419910360 4 | 419910408 4 | 419910552 4 | 419910600 4 | 419910744 4 | 419910936 4 | 419911128 4 | 419911176 4 | 419911320 4 | 419911368 4 | 419911512 4 | 419911560 4 | 419911704 4 | 419911752 4 | 419911896 4 | 419912088 4 | 419912136 4 | 419912280 4 | 419912328 4 | 419912520 4 | 419912664 4 | 419912712 4 | 419912856 4 | 419912904 4 | 419913048 4 | 419913096 4 | 419913432 4 | 419913624 4 | 419913672 4 | 419913816 4 | 419913864 4 | 419914008 4 | 419914056 4 | 419914200 4 | 419914248 4 | 419914392 4 | 419914440 4 | 419914584 4 | 419914632 4 | 419914776 4 | 419914824 4 | 419914968 4 | 419915016 4 | 419915160 4 | 419915208 4 | 419915352 4 | 419915400 4 | 419915544 4 | 419915592 4 | 419915736 4 | 419915784 4 | 419915928 4 | 419915976 4 | 419916120 4 | 419916168 4 | 419916312 4 | 419916360 4 | 419916504 4 | 419916552 4 | 419916696 4 | 419916744 4 | 419916888 4 | 419916936 4 | 419917080 4 | 419917128 4 | 419917272 4 | 419917320 4 | 419917464 4 | 419917512 4 | 419917656 4 | 419917704 4 | 419917848 4 | 419917896 4 | 419918040 4 | 419918088 4 | 419918232 4 | 419918280 4 | 419918424 4 | 419918472 4 | 419918616 4 | 419918664 4 | 419918808 4 | 419918856 4 | 419919000 4 | 419919048 4 | 419919192 4 | 419919240 4 | 419919384 4 | 419919432 4 | 419919576 4 | 419919624 4 | 419919768 4 | 419919816 4 | 419919960 4 | 419920008 4 | 419920152 4 | 419920200 4 | 419920344 4 | 419920392 4 | 419920536 4 | 419920584 4 | 419920728 4 | 419920776 4 | 419920920 4 | 419920968 4 | 419921112 4 | 419921160 4 | 419921304 4 | 419921352 4 | 419921496 4 | 419921544 4 | 419921688 4 | 419921736 4 | 419921880 4 | 419925960 4 | 419926104 4 | 419926152 4 | 419926296 4 | 419926344 4 | 419926488 4 | 419926536 4 | 419926680 4 | 419926728 4 | 419926872 4 | 419926920 4 | 419927064 4 | 419927112 4 | 419927256 4 | 419927304 4 | 419927448 4 | 419927496 4 | 419927640 4 | 419927688 4 | 419927832 4 | 419927880 4 | 419928024 4 | 419928072 4 | 419928216 4 | 419928264 4 | 419928408 4 | 419928456 4 | 419928600 4 | 419928648 4 | 419928792 4 | 419928840 4 | 419928984 4 | 419929032 4 | 419929176 4 | 419929224 4 | 419929368 4 | 419929416 4 | 419929560 4 | 419929608 4 | 419929752 4 | 419929800 4 | 419929944 4 | 419929992 4 | 419930136 4 | 419930184 4 | 419930376 4 | 419930520 4 | 419930568 4 | 419930712 4 | 419930760 4 | 419930904 4 | 419930952 4 | 419931096 4 | 419931144 4 | 419931336 4 | 419931480 4 | 419931528 4 | 419931672 4 | 419931720 4 | 419931864 4 | 419931912 4 | 419932056 4 | 419932104 4 | 419932248 4 | 419932296 4 | 419932440 4 | 419932488 4 | 419932632 4 | 419932680 4 | 419932872 4 | 419933016 4 | 419933064 4 | 419933208 4 | 419933256 4 | 419933400 4 | 419933448 4 | 419933592 4 | 419933640 4 | 421408728 4 | 466985216 4 | 498381440 4 | 1440340224 4 | 2173796344 4 | 2174303760 4 | 2174303864 4 | 2174303968 4 | 2174304040 4 | 2174304072 4 | 2174304176 4 | 2174304248 4 | 2174304280 4 | 2174304380 4 | 2174304384 4 | 2174304488 4 | 2174304560 4 | 2174304592 4 | 2174304696 4 | 2174304800 4 | 2174304872 4 | 2174304904 4 | 2174305008 4 | 2174305080 4 | 2174305112 4 | 2174305212 4 | 2174305216 4 | 2174305320 4 | 2174305392 4 | 2174305424 4 | 2174305528 4 | 2174305632 4 | 2174305704 4 | 2174305736 4 | 2174305840 4 | 2174305912 4 | 2174305944 4 | 2174306044 4 | 2174306048 4 | 2174306152 4 | 2174306224 4 | 2174306256 4 | 2174306360 4 | 2174306464 4 | 2174306536 4 | 2174306568 4 | 2174306672 4 | 2174306744 4 | 2174306776 4 | 2174306876 4 | 2174306880 4 | 2174306984 4 | 2174307056 4 | 2174307088 4 | 2174307192 4 | 2174307296 4 | 2174307368 4 | 2174307400 4 | 2174307504 4 | 2174307576 4 | 2174307608 4 | 2174307708 4 | 2174307712 4 | 2174307816 4 | 2174307888 4 | 2174307920 4 | 2174308024 4 | 2174308128 4 | 2174308200 4 | 2174308232 4 | 2174308336 4 | 2174308408 4 | 2174308440 4 | 2174308540 4 | 2174308544 4 | 2174308648 4 | 2174308720 4 | 2174308752 4 | 2174308856 4 | 2174308960 4 | 2174309032 4 | 2174309064 4 | 2174309168 4 | 2174309240 4 | 2174309272 4 | 2174309372 4 | 2174309376 4 | 2174309480 4 | 2174309552 4 | 2174309584 4 | 2174309688 4 | 2174309792 4 | 2174309864 4 | 2174309896 4 | 2174310000 4 | 2174310072 4 | 2174310104 4 | 2174310204 4 | 2174310208 4 | 2174310312 4 | 2174310384 4 | 2174310416 4 | 2174310520 4 | 2174310624 4 | 2174310696 4 | 2174310728 4 | 2174310832 4 | 2174310904 4 | 2174310936 4 | 2174311036 4 | 2174311040 4 | 2174311144 4 | 2174311216 4 | 2174311248 4 | 2174311352 4 | 2174311456 4 | 2174311528 4 | 2174311560 4 | 2174311664 4 | 2174311736 4 | 2174311768 4 | 2174311868 4 | 2174311872 4 | 2174311976 4 | 2174312048 4 | 2174312080 4 | 2174312184 4 | 2174312288 4 | 2174312360 4 | 2174312392 4 | 2174312496 4 | 2174312568 4 | 2174312600 4 | 2174312700 4 | 2174312704 4 | 2174312808 4 | 2174312880 4 | 2174312912 4 | 2174313016 4 | 2174313120 4 | 2174313192 4 | 2174313224 4 | 2174313328 4 | 2174313400 4 | 2174313432 4 | 2174313532 4 | 2174313536 4 | 2174313640 4 | 2174313712 4 | 2174313744 4 | 2174313848 4 | 2174313952 4 | 2174314024 4 | 2174314056 4 | 2174314160 4 | 2174314232 4 | 2174314264 4 | 2174314364 4 | 2174314368 4 | 2174314472 4 | 2174314544 4 | 2174314576 4 | 2174314680 4 | 2174314784 4 | 2174314856 4 | 2174314888 4 | 2174314992 4 | 2174315064 4 | 2174315096 4 | 2174315196 4 | 2174315200 4 | 2174315304 4 | 2174315376 4 | 2174315408 4 | 2174315512 4 | 2174315616 4 | 2174315688 4 | 2174315720 4 | 2174315824 4 | 2174315896 4 | 2174315928 4 | 2174316028 4 | 2174316032 4 | 2174316136 4 | 2174316208 4 | 2174316240 4 | 2174316344 4 | 2174316448 4 | 2174316520 4 | 2174316552 4 | 2174316656 4 | 2174316728 4 | 2174316760 4 | 2174316860 4 | 2174316864 4 | 2174316968 4 | 2174317040 4 | 2174317072 4 | 2174317176 4 | 2174317280 4 | 2174317352 4 | 2174317384 4 | 2174317488 4 | 2174317560 4 | 2174317592 4 | 2174317692 4 | 2174317696 4 | 2174317800 4 | 2174317872 4 | 2174317904 4 | 2174318008 4 | 2174318112 4 | 2174318184 4 | 2174318216 4 | 2174318320 4 | 2174318392 4 | 2174318424 4 | 2174318524 4 | 2174318528 4 | 2174318632 4 | 2174318704 4 | 2174318736 4 | 2174318840 4 | 2174318944 4 | 2174319016 4 | 2174319048 4 | 2174319152 4 | 2174319224 4 | 2174319256 4 | 2174319356 4 | 2174319360 4 | 2174319464 4 | 2174319536 4 | 2174319568 4 | 2174319672 4 | 2174319848 3 | 





Heartbeat CPU 0 instructions: 80000002 cycles: 115120920 heartbeat IPC: 0.254638 cumulative IPC: 0.293205 (Simulation time: 0 hr 4 min 58 sec) 
0 24 | 419858520 4 | 419858568 4 | 419858712 4 | 419858760 4 | 419858904 4 | 419858952 4 | 419859096 4 | 419859144 4 | 419859288 4 | 419859336 4 | 419859480 4 | 419859528 4 | 419859672 4 | 419859720 4 | 419859864 4 | 419859912 4 | 419860056 4 | 419860104 4 | 419860248 4 | 419860296 4 | 419860440 4 | 419860488 4 | 419860632 4 | 419860824 4 | 419860872 4 | 419861016 4 | 419861064 4 | 419861208 4 | 419861256 4 | 419861400 4 | 419861448 4 | 419861592 4 | 419861784 4 | 419861832 4 | 419861976 4 | 419862024 4 | 419862168 4 | 419862216 4 | 419862360 4 | 419862408 4 | 419862552 4 | 419862600 4 | 419862744 4 | 419862792 4 | 419862936 4 | 419862984 4 | 419863128 4 | 419863320 4 | 419863368 4 | 419863512 4 | 419863560 4 | 419863704 4 | 419863752 4 | 419863896 4 | 419863944 4 | 419864088 4 | 419864280 4 | 419864328 4 | 419864472 4 | 419864520 4 | 419864664 4 | 419864712 4 | 419864856 4 | 419864904 4 | 419865048 4 | 419865096 4 | 419865240 4 | 419865288 4 | 419865432 4 | 419865480 4 | 419865624 4 | 419865672 4 | 419865816 4 | 419865864 4 | 419866008 4 | 419866056 4 | 419866200 4 | 419866248 4 | 419866392 4 | 419866440 4 | 419866584 4 | 419866632 4 | 419866776 4 | 419866824 4 | 419866968 4 | 419867016 4 | 419867160 4 | 419867208 4 | 419867352 4 | 419867400 4 | 419867544 4 | 419867592 4 | 419867736 4 | 419867784 4 | 419867928 4 | 419867976 4 | 419868120 4 | 419868168 4 | 419868312 4 | 419868360 4 | 419868504 4 | 419868552 4 | 419870856 4 | 419872776 4 | 419872920 4 | 419872968 4 | 419873112 4 | 419873160 4 | 419873304 4 | 419873352 4 | 419873496 4 | 419873544 4 | 419873688 4 | 419873736 4 | 419873880 4 | 419873928 4 | 419874072 4 | 419874120 4 | 419874264 4 | 419874312 4 | 419874456 4 | 419874504 4 | 419874648 4 | 419874696 4 | 419874840 4 | 419874888 4 | 419875032 4 | 419875080 4 | 419875224 4 | 419875272 4 | 419875416 4 | 419875464 4 | 419875608 4 | 419875656 4 | 419875800 4 | 419875848 4 | 419875992 4 | 419876040 4 | 419876184 4 | 419876232 4 | 419876376 4 | 419876424 4 | 419876568 4 | 419876616 4 | 419876760 4 | 419876808 4 | 419876952 4 | 419877000 4 | 419877144 4 | 419877192 4 | 419877336 4 | 419877384 4 | 419877528 4 | 419877576 4 | 419877720 4 | 419877768 4 | 419877912 4 | 419877960 4 | 419878104 4 | 419878152 4 | 419878296 4 | 419878344 4 | 419878488 4 | 419878536 4 | 419878680 4 | 419878728 4 | 419878872 4 | 419878920 4 | 419879064 4 | 419879112 4 | 419879256 4 | 419879304 4 | 419879448 4 | 419879496 4 | 419879640 4 | 419879688 4 | 419879832 4 | 419879880 4 | 419880024 4 | 419880072 4 | 419880216 4 | 419880264 4 | 419880408 4 | 419880456 4 | 419880600 4 | 419880648 4 | 419880792 4 | 419880840 4 | 419880984 4 | 419881032 4 | 419881176 4 | 419881224 4 | 419881368 4 | 419881416 4 | 419881560 4 | 419881608 4 | 419881752 4 | 419881800 4 | 419881944 4 | 419881992 4 | 419882136 4 | 419882184 4 | 419882328 4 | 419882376 4 | 419882520 4 | 419882568 4 | 419882712 4 | 419882760 4 | 419882904 4 | 419882952 4 | 419883096 4 | 419883144 4 | 419883288 4 | 419883336 4 | 419883480 4 | 419883528 4 | 419883672 4 | 419883720 4 | 419883864 4 | 419883912 4 | 419884056 4 | 419884104 4 | 419884248 4 | 419884296 4 | 419884440 4 | 419884488 4 | 419884632 4 | 419884680 4 | 419884824 4 | 419884872 4 | 419885016 4 | 419885064 4 | 419885208 4 | 419885256 4 | 419885400 4 | 419885448 4 | 419885592 4 | 419885640 4 | 419885784 4 | 419885832 4 | 419885976 4 | 419886024 4 | 419886168 4 | 419886216 4 | 419886360 4 | 419886408 4 | 419886552 4 | 419886600 4 | 419886744 4 | 419886792 4 | 419886936 4 | 419886984 4 | 419887128 4 | 419887176 4 | 419887320 4 | 419887368 4 | 419887512 4 | 419887560 4 | 419887704 4 | 419887752 4 | 419887896 4 | 419887944 4 | 419888088 4 | 419888136 4 | 419888280 4 | 419888328 4 | 419888472 4 | 419888520 4 | 419888664 4 | 419888712 4 | 419888856 4 | 419888904 4 | 419889048 4 | 419889096 4 | 419889240 4 | 419889288 4 | 419889432 4 | 419889480 4 | 419889624 4 | 419889672 4 | 419889816 4 | 419889864 4 | 419890008 4 | 419890056 4 | 419890200 4 | 419890248 4 | 419890392 4 | 419890440 4 | 419890584 4 | 419890632 4 | 419890776 4 | 419890824 4 | 419890968 4 | 419891016 4 | 419891160 4 | 419891208 4 | 419891352 4 | 419891400 4 | 419891544 4 | 419891592 4 | 419891736 4 | 419891784 4 | 419891928 4 | 419891976 4 | 419892120 4 | 419892168 4 | 419892312 4 | 419892360 4 | 419892504 4 | 419892552 4 | 419892696 4 | 419892744 4 | 419892888 4 | 419892936 4 | 419893080 4 | 419893128 4 | 419893272 4 | 419893320 4 | 419893464 4 | 419893512 4 | 419893656 4 | 419893704 4 | 419893848 4 | 419893896 4 | 419894040 4 | 419894088 4 | 419894232 4 | 419894280 4 | 419894424 4 | 419894472 4 | 419894616 4 | 419894664 4 | 419894808 4 | 419894856 4 | 419895000 4 | 419895048 4 | 419895192 4 | 419895240 4 | 419895384 4 | 419895432 4 | 419895576 4 | 419895624 4 | 419895768 4 | 419895816 4 | 419895960 4 | 419896008 4 | 419896152 4 | 419896200 4 | 419896344 4 | 419896392 4 | 419896536 4 | 419896584 4 | 419896728 4 | 419896776 4 | 419896920 4 | 419896968 4 | 419897112 4 | 419897160 4 | 419897304 4 | 419897352 4 | 419897496 4 | 419897544 4 | 419897688 4 | 419897736 4 | 419897880 4 | 419897928 4 | 419898072 4 | 419898120 4 | 419898264 4 | 419898312 4 | 419898456 4 | 419898504 4 | 419898648 4 | 419898696 4 | 419898840 4 | 419898888 4 | 419899032 4 | 419899080 4 | 419899224 4 | 419899272 4 | 419899416 4 | 419899464 4 | 419899608 4 | 419899656 4 | 419899800 4 | 419899848 4 | 419899992 4 | 419900040 4 | 419900184 4 | 419900232 4 | 419900376 4 | 419900424 4 | 419900568 4 | 419900616 4 | 419900760 4 | 419900808 4 | 419900952 4 | 419901000 4 | 419901144 4 | 419901192 4 | 419901336 4 | 419901384 4 | 419901528 4 | 419901576 4 | 419901720 4 | 419901768 4 | 419901912 4 | 419901960 4 | 419902104 4 | 419902152 4 | 419902296 4 | 419902344 4 | 419902488 4 | 419902536 4 | 419902680 4 | 419902728 4 | 419902872 4 | 419902920 4 | 419903064 4 | 419903112 4 | 419903256 4 | 419903304 4 | 419903448 4 | 419903496 4 | 419903640 4 | 419903688 4 | 419903832 4 | 419903880 4 | 419904024 4 | 419904072 4 | 419904264 3 | 437546432 4 | 443435008 4 | 443437144 4 | 443437184 4 | 498422784 4 | 561277312 4 | 686935552 4 | 1440993664 4 | 2174279008 4 | 2174279112 4 | 2174279216 4 | 2174279288 4 | 2174279320 4 | 2174279420 4 | 2174279424 4 | 2174279528 4 | 2174279600 4 | 2174279632 4 | 2174279736 4 | 2174279840 4 | 2174279912 4 | 2174279944 4 | 2174280048 4 | 2174280120 4 | 2174280152 4 | 2174280252 4 | 2174280256 4 | 2174280360 4 | 2174280432 4 | 2174280464 4 | 2174280568 4 | 2174280672 4 | 2174280744 4 | 2174280776 4 | 2174280880 4 | 2174280952 4 | 2174280984 4 | 2174281084 4 | 2174281088 4 | 2174281192 4 | 2174281264 4 | 2174281296 4 | 2174281400 4 | 2174281504 4 | 2174281576 4 | 2174281608 4 | 2174281712 4 | 2174281784 4 | 2174281816 4 | 2174281916 4 | 2174281920 4 | 2174282024 4 | 2174282096 4 | 2174282128 4 | 2174282232 4 | 2174282336 4 | 2174282408 4 | 2174282440 4 | 2174282544 4 | 2174282616 4 | 2174282648 4 | 2174282748 4 | 2174282752 4 | 2174282856 4 | 2174282928 4 | 2174282960 4 | 2174283064 4 | 2174283168 4 | 2174283240 4 | 2174283272 4 | 2174283376 4 | 2174283448 4 | 2174283480 4 | 2174283580 4 | 2174283584 4 | 2174283688 4 | 2174283760 4 | 2174283792 4 | 2174284000 4 | 2174284072 4 | 2174284104 4 | 2174284208 4 | 2174284280 4 | 2174284312 4 | 2174284412 4 | 2174284416 4 | 2174284520 4 | 2174284592 4 | 2174284624 4 | 2174284728 4 | 2174284832 4 | 2174284904 4 | 2174284936 4 | 2174285040 4 | 2174285112 4 | 2174285144 4 | 2174285244 4 | 2174285248 4 | 2174285352 4 | 2174285424 4 | 2174285456 4 | 2174285560 4 | 2174285664 4 | 2174285736 4 | 2174285768 4 | 2174285872 4 | 2174285944 4 | 2174285976 4 | 2174286076 4 | 2174286080 4 | 2174286184 4 | 2174286256 4 | 2174286288 4 | 2174286392 4 | 2174286496 4 | 2174286568 4 | 2174286600 4 | 2174286704 4 | 2174286776 4 | 2174286808 4 | 2174286908 4 | 2174286912 4 | 2174287016 4 | 2174287088 4 | 2174287120 4 | 2174287224 4 | 2174287328 4 | 2174287400 4 | 2174287432 4 | 2174287536 4 | 2174287608 4 | 2174287640 4 | 2174287740 4 | 2174287744 4 | 2174287848 4 | 2174287920 4 | 2174287952 4 | 2174288056 4 | 2174288160 4 | 2174288232 4 | 2174288264 4 | 2174288368 4 | 2174288440 4 | 2174288472 4 | 2174288572 4 | 2174288576 4 | 2174288680 4 | 2174288752 4 | 2174288784 4 | 2174288888 4 | 2174288992 4 | 2174289064 4 | 2174289096 4 | 2174289200 4 | 2174289272 4 | 2174289304 4 | 2174289404 4 | 2174289408 4 | 2174289512 4 | 2174289584 4 | 2174289616 4 | 2174289720 4 | 2174289824 4 | 2174289896 4 | 2174289928 4 | 2174290032 4 | 2174290104 4 | 2174290136 4 | 2174290236 4 | 2174290240 4 | 2174290344 4 | 2174290416 4 | 2174290448 4 | 2174290552 4 | 2174290656 4 | 2174290728 4 | 2174290760 4 | 2174290864 4 | 2174290936 4 | 2174290968 4 | 2174291068 4 | 2174291072 4 | 2174291176 4 | 2174291248 4 | 2174291280 4 | 2174291384 4 | 2174291488 4 | 2174291560 4 | 2174291592 4 | 2174291696 4 | 2174291768 4 | 2174291800 4 | 2174291900 4 | 2174291904 4 | 2174292008 4 | 2174292080 4 | 2174292112 4 | 2174292216 4 | 2174292320 4 | 2174292392 4 | 2174292424 4 | 2174292528 4 | 2174292600 4 | 2174292632 4 | 2174292732 4 | 2174292736 4 | 2174292840 4 | 2174292912 4 | 2174292944 4 | 2174293048 4 | 2174293152 4 | 2174293224 4 | 2174293256 4 | 2174293360 4 | 2174293432 4 | 2174293464 4 | 2174293564 4 | 2174293568 4 | 2174293672 4 | 2174293744 4 | 2174293776 4 | 2174293880 4 | 2174293984 4 | 2174294056 4 | 2174294088 4 | 2174294192 4 | 2174294264 4 | 2174294296 4 | 2174294396 4 | 2174294400 4 | 2174294504 4 | 2174294576 4 | 2174294608 4 | 2174294712 4 | 2174294816 4 | 2174294888 4 | 2174294920 4 | 2174295024 4 | 2174295096 4 | 2174295128 4 | 2174295228 4 | 2174295232 4 | 2174295336 4 | 2174295408 4 | 2174295440 4 | 2174295544 4 | 2174295648 4 | 2174295720 4 | 2174295752 4 | 2174295856 4 | 2174295928 4 | 2174295960 4 | 2174296060 4 | 2174296064 4 | 2174296168 4 | 2174296240 4 | 2174296272 4 | 2174296376 4 | 2174296480 4 | 2174296552 4 | 2174296584 4 | 2174296688 4 | 2174296760 4 | 2174296792 4 | 2174296892 4 | 2174296896 4 | 2174297000 4 | 2174297072 4 | 2174297104 4 | 2174297208 4 | 2174297312 4 | 2174297384 4 | 2174297416 4 | 2174297520 4 | 2174297592 4 | 2174297624 4 | 2174297724 4 | 2174297728 4 | 2174297832 4 | 2174297904 4 | 2174297936 4 | 2174298040 4 | 2174298144 4 | 2174298216 4 | 2174298248 4 | 2174298352 4 | 2174298424 4 | 2174298456 4 | 2174298556 4 | 2174298560 4 | 2174298664 4 | 2174298736 4 | 2174298768 4 | 2174298872 4 | 2174298976 4 | 2174299048 4 | 2174299080 4 | 2174299184 4 | 2174299256 4 | 2174299288 4 | 2174299388 4 | 2174299392 4 | 2174299496 4 | 2174299568 4 | 2174299600 4 | 2174299704 4 | 2174299808 4 | 2174299880 4 | 2174299912 4 | 2174300016 4 | 2174300088 4 | 2174300120 4 | 2174300220 4 | 2174300224 4 | 2174300328 4 | 2174300400 4 | 2174300432 4 | 2174300536 4 | 2174300640 4 | 2174300712 4 | 2174300744 4 | 2174300848 4 | 2174300920 4 | 2174300952 4 | 2174301052 4 | 2174301056 4 | 2174301160 4 | 2174301232 4 | 2174301264 4 | 2174301368 4 | 2174301472 4 | 2174301544 4 | 2174301576 4 | 2174301680 4 | 2174301752 4 | 2174301784 4 | 2174301884 4 | 2174301888 4 | 2174301992 4 | 2174302064 4 | 2174302096 4 | 2174302200 4 | 2174302304 4 | 2174302376 4 | 2174302408 4 | 2174302512 4 | 2174302584 4 | 2174302616 4 | 2174302716 4 | 2174302720 4 | 2174302824 4 | 2174302896 4 | 2174302928 4 | 2174303032 4 | 2174303136 4 | 2174303208 4 | 2174303240 4 | 2174303344 4 | 2174303416 4 | 2174303448 4 | 2174303548 4 | 2174303552 4 | 2174303656 4 | 2174303728 4 | 



0 21 | 419819352 3 | 419819544 4 | 419819592 4 | 419819736 4 | 419819784 4 | 419819928 4 | 419819976 4 | 419820120 4 | 419820168 4 | 419820312 4 | 419820360 4 | 419820504 4 | 419820552 4 | 419820696 4 | 419820744 4 | 419820888 4 | 419820936 4 | 419821080 4 | 419821128 4 | 419821272 4 | 419821320 4 | 419821464 4 | 419821512 4 | 419821656 4 | 419821704 4 | 419821848 4 | 419821896 4 | 419822040 4 | 419822088 4 | 419822232 4 | 419822280 4 | 419822424 4 | 419822472 4 | 419822616 4 | 419822664 4 | 419822808 4 | 419822856 4 | 419823000 4 | 419823048 4 | 419823192 4 | 419823240 4 | 419823384 4 | 419823432 4 | 419823576 4 | 419823624 4 | 419823768 4 | 419823816 4 | 419823960 4 | 419824008 4 | 419824152 4 | 419824200 4 | 419824344 4 | 419824392 4 | 419824536 4 | 419824584 4 | 419824728 4 | 419824776 4 | 419824920 4 | 419824968 4 | 419825112 4 | 419825160 4 | 419825304 4 | 419825352 4 | 419825496 4 | 419825544 4 | 419825688 4 | 419825736 4 | 419825880 4 | 419825928 4 | 419826072 4 | 419826120 4 | 419826264 4 | 419826312 4 | 419826456 4 | 419826504 4 | 419826648 4 | 419826696 4 | 419826840 4 | 419826888 4 | 419827032 4 | 419827080 4 | 419827224 4 | 419827272 4 | 419827416 4 | 419827464 4 | 419827608 4 | 419827656 4 | 419827800 4 | 419827848 4 | 419827992 4 | 419828040 4 | 419828184 4 | 419828232 4 | 419828376 4 | 419828424 4 | 419828568 4 | 419828616 4 | 419828760 4 | 419828808 4 | 419828952 4 | 419829000 4 | 419829144 4 | 419829192 4 | 419829336 4 | 419829384 4 | 419829528 4 | 419829576 4 | 419829720 4 | 419829768 4 | 419829912 4 | 419829960 4 | 419830104 4 | 419830152 4 | 419830296 4 | 419830344 4 | 419830488 4 | 419830536 4 | 419830680 4 | 419830728 4 | 419830872 4 | 419830920 4 | 419831064 4 | 419831112 4 | 419831256 4 | 419831304 4 | 419831448 4 | 419831496 4 | 419831640 4 | 419831688 4 | 419831832 4 | 419831880 4 | 419832024 4 | 419832072 4 | 419832216 4 | 419832264 4 | 419832408 4 | 419832456 4 | 419832600 4 | 419832648 4 | 419832792 4 | 419832840 4 | 419833032 4 | 419833176 4 | 419833224 4 | 419833368 4 | 419833416 4 | 419833560 4 | 419833608 4 | 419833752 4 | 419833800 4 | 419833944 4 | 419833992 4 | 419834184 4 | 419834328 4 | 419834376 4 | 419834520 4 | 419834568 4 | 419834712 4 | 419834760 4 | 419834904 4 | 419834952 4 | 419835144 4 | 419835288 4 | 419835336 4 | 419835528 4 | 419835720 4 | 419835864 4 | 419835912 4 | 419836056 4 | 419836248 4 | 419836296 4 | 419836440 4 | 419836488 4 | 419836632 4 | 419836680 4 | 419836824 4 | 419836872 4 | 419837016 4 | 419837208 4 | 419837256 4 | 419837400 4 | 419837448 4 | 419837592 4 | 419837640 4 | 419837784 4 | 419837832 4 | 419837976 4 | 419838024 4 | 419838168 4 | 419838216 4 | 419838360 4 | 419838408 4 | 419838552 4 | 419838744 4 | 419838792 4 | 419838936 4 | 419838984 4 | 419839128 4 | 419839176 4 | 419839320 4 | 419839368 4 | 419839512 4 | 419839704 4 | 419839752 4 | 419839896 4 | 419839944 4 | 419842008 4 | 419842200 4 | 419842968 4 | 419844120 4 | 419844168 4 | 419844312 4 | 419844360 4 | 419844504 4 | 419844552 4 | 419844696 4 | 419844744 4 | 419844888 4 | 419844936 4 | 419845080 4 | 419845128 4 | 419845272 4 | 419845320 4 | 419845464 4 | 419845512 4 | 419845656 4 | 419845704 4 | 419845848 4 | 419845896 4 | 419846040 4 | 419846088 4 | 419846232 4 | 419846280 4 | 419846424 4 | 419846472 4 | 419846616 4 | 419846664 4 | 419846808 4 | 419846856 4 | 419847000 4 | 419847048 4 | 419847192 4 | 419847240 4 | 419847384 4 | 419847432 4 | 419847576 4 | 419847624 4 | 419847768 4 | 419847816 4 | 419847960 4 | 419848008 4 | 419848152 4 | 419848200 4 | 419848344 4 | 419848392 4 | 419848536 4 | 419848584 4 | 419848728 4 | 419848776 4 | 419848920 4 | 419848968 4 | 419849112 4 | 419849160 4 | 419849304 4 | 419849352 4 | 419849496 4 | 419849544 4 | 419849688 4 | 419849736 4 | 419849880 4 | 419849928 4 | 419850072 4 | 419850120 4 | 419850264 4 | 419850312 4 | 419850456 4 | 419850504 4 | 419850648 4 | 419850696 4 | 419850840 4 | 419850888 4 | 419851032 4 | 419851080 4 | 419851224 4 | 419851272 4 | 419851416 4 | 419851464 4 | 419851608 4 | 419851656 4 | 419851800 4 | 419851848 4 | 419851992 4 | 419852040 4 | 419852184 4 | 419852232 4 | 419852376 4 | 419852424 4 | 419852568 4 | 419852616 4 | 419852760 4 | 419852808 4 | 419852952 4 | 419853000 4 | 419853144 4 | 419853192 4 | 419853336 4 | 419853384 4 | 419853528 4 | 419853576 4 | 419853720 4 | 419853768 4 | 419853912 4 | 419853960 4 | 419854104 4 | 419854152 4 | 419854296 4 | 419854344 4 | 419854488 4 | 419854536 4 | 419854680 4 | 419854728 4 | 419854872 4 | 419854920 4 | 419855064 4 | 419855112 4 | 419855256 4 | 419855304 4 | 419855448 4 | 419855496 4 | 419855640 4 | 419855688 4 | 419855832 4 | 419855880 4 | 419856024 4 | 419856072 4 | 419856216 4 | 419856264 4 | 419856408 4 | 419856456 4 | 419856600 4 | 419856648 4 | 419856792 4 | 419856840 4 | 419856984 4 | 419857032 4 | 419857176 4 | 419857224 4 | 419857368 4 | 419857416 4 | 419857560 4 | 419857608 4 | 419857752 4 | 419857800 4 | 419857944 4 | 419857992 4 | 419858136 4 | 419858184 4 | 419858328 4 | 419858376 4 | 420900696 4 | 443445376 4 | 467030016 4 | 498483072 4 | 553252864 4 | 561383296 4 | 670922752 4 | 687161472 4 | 922608896 4 | 938739968 4 | 1376942080 4 | 1425530880 4 | 1441896960 4 | 2174257896 4 | 2174257968 4 | 2174258000 4 | 2174258104 4 | 2174258208 4 | 2174258280 4 | 2174258312 4 | 2174258416 4 | 2174258488 4 | 2174258520 4 | 2174258620 4 | 2174258624 4 | 2174258728 4 | 2174258800 4 | 2174258832 4 | 2174258936 4 | 2174259040 4 | 2174259112 4 | 2174259144 4 | 2174259248 4 | 2174259320 4 | 2174259352 4 | 2174259452 4 | 2174259456 4 | 2174259560 4 | 2174259632 4 | 2174259664 4 | 2174259768 4 | 2174259872 4 | 2174259944 4 | 2174259976 4 | 2174260080 4 | 2174260152 4 | 2174260184 4 | 2174260284 4 | 2174260288 4 | 2174260392 4 | 2174260464 4 | 2174260496 4 | 2174260600 4 | 2174260704 4 | 2174260776 4 | 2174260808 4 | 2174260912 4 | 2174260984 4 | 2174261016 4 | 2174261116 4 | 2174261120 4 | 2174261224 4 | 2174261296 4 | 2174261328 4 | 2174261432 4 | 2174261536 4 | 2174261608 4 | 2174261640 4 | 2174261744 4 | 2174261816 4 | 2174261848 4 | 2174261948 4 | 2174261952 4 | 2174262056 4 | 2174262128 4 | 2174262160 4 | 2174262264 4 | 2174262368 4 | 2174262440 4 | 2174262472 4 | 2174262576 4 | 2174262648 4 | 2174262680 4 | 2174262780 4 | 2174262784 4 | 2174262888 4 | 2174262960 4 | 2174262992 4 | 2174263096 4 | 2174263200 4 | 2174263272 4 | 2174263304 4 | 2174263408 4 | 2174263480 4 | 2174263512 4 | 2174263612 4 | 2174263616 4 | 2174263720 4 | 2174263792 4 | 2174263824 4 | 2174263928 4 | 2174264032 4 | 2174264104 4 | 2174264136 4 | 2174264240 4 | 2174264312 4 | 2174264344 4 | 2174264444 4 | 2174264448 4 | 2174264552 4 | 2174264624 4 | 2174264656 4 | 2174264760 4 | 2174264864 4 | 2174264936 4 | 2174264968 4 | 2174265072 4 | 2174265144 4 | 2174265176 4 | 2174265276 4 | 2174265280 4 | 2174265384 4 | 2174265456 4 | 2174265488 4 | 2174265592 4 | 2174265696 4 | 2174265768 4 | 2174265800 4 | 2174265904 4 | 2174265976 4 | 2174266008 4 | 2174266108 4 | 2174266112 4 | 2174266216 4 | 2174266288 4 | 2174266320 4 | 2174266424 4 | 2174266528 4 | 2174266600 4 | 2174266632 4 | 2174266736 4 | 2174266808 4 | 2174266840 4 | 2174266940 4 | 2174266944 4 | 2174267048 4 | 2174267120 4 | 2174267152 4 | 2174267256 4 | 2174267360 4 | 2174267432 4 | 2174267464 4 | 2174267568 4 | 2174267640 4 | 2174267672 4 | 2174267772 4 | 2174267776 4 | 2174267880 4 | 2174267952 4 | 2174267984 4 | 2174268088 4 | 2174268192 4 | 2174268264 4 | 2174268296 4 | 2174268400 4 | 2174268472 4 | 2174268504 4 | 2174268604 4 | 2174268608 4 | 2174268712 4 | 2174268784 4 | 2174268816 4 | 2174268920 4 | 2174269024 4 | 2174269096 4 | 2174269128 4 | 2174269232 4 | 2174269304 4 | 2174269336 4 | 2174269436 4 | 2174269440 4 | 2174269544 4 | 2174269616 4 | 2174269648 4 | 2174269752 4 | 2174269856 4 | 2174269928 4 | 2174269960 4 | 2174270064 4 | 2174270136 4 | 2174270168 4 | 2174270268 4 | 2174270272 4 | 2174270376 4 | 2174270448 4 | 2174270480 4 | 2174270584 4 | 2174270688 4 | 2174270760 4 | 2174270792 4 | 2174270896 4 | 2174270968 4 | 2174271000 4 | 2174271100 4 | 2174271104 4 | 2174271208 4 | 2174271280 4 | 2174271312 4 | 2174271416 4 | 2174271520 4 | 2174271592 4 | 2174271624 4 | 2174271728 4 | 2174271800 4 | 2174271832 4 | 2174271932 4 | 2174271936 4 | 2174272040 4 | 2174272112 4 | 2174272144 4 | 2174272248 4 | 2174272352 4 | 2174272424 4 | 2174272456 4 | 2174272560 4 | 2174272632 4 | 2174272664 4 | 2174272764 4 | 2174272768 4 | 2174272872 4 | 2174272944 4 | 2174272976 4 | 2174273080 4 | 2174273184 4 | 2174273256 4 | 2174273288 4 | 2174273392 4 | 2174273464 4 | 2174273496 4 | 2174273596 4 | 2174273600 4 | 2174273704 4 | 2174273776 4 | 2174273808 4 | 2174273912 4 | 2174274016 4 | 2174274088 4 | 2174274120 4 | 2174274224 4 | 2174274296 4 | 2174274328 4 | 2174274428 4 | 2174274432 4 | 2174274536 4 | 2174274608 4 | 2174274640 4 | 2174274744 4 | 2174274848 4 | 2174274920 4 | 2174274952 4 | 2174275056 4 | 2174275128 4 | 2174275160 4 | 2174275260 4 | 2174275264 4 | 2174275368 4 | 2174275440 4 | 2174275472 4 | 2174275576 4 | 2174275680 4 | 2174275752 4 | 2174275784 4 | 2174275888 4 | 2174275960 4 | 2174275992 4 | 2174276092 4 | 2174276096 4 | 2174276200 4 | 2174276272 4 | 2174276304 4 | 2174276408 4 | 2174276512 4 | 2174276584 4 | 2174276616 4 | 2174276720 4 | 2174276792 4 | 2174276824 4 | 2174276924 4 | 2174276928 4 | 2174277032 4 | 2174277104 4 | 2174277136 4 | 2174277240 4 | 2174277344 4 | 2174277416 4 | 2174277448 4 | 2174277552 4 | 2174277624 4 | 2174277656 4 | 2174277756 4 | 2174277760 4 | 2174277864 4 | 2174277936 4 | 2174277968 4 | 2174278072 4 | 2174278176 4 | 2174278248 4 | 2174278280 4 | 2174278384 4 | 2174278456 4 | 2174278488 4 | 2174278588 4 | 2174278592 4 | 2174278696 4 | 2174278768 4 | 2174278800 4 | 2174278904 4 | 2174279080 4 | 2174648312 4 | 









0 23 | 419360664 4 | 421457880 4 | 436075136 4 | 498528896 4 | 687366656 4 | 687866624 4 | 939545216 4 | 1442691328 4 | 1442853248 4 | 1459645440 4 | 












0 7 | 439709824 4 | 467849472 4 | 501224832 4 | 956151168 4 | 956317824 4 | 1443575424 4 | 1476444928 4 | 1493208320 4 | 2174627824 4 | 














0 8 | 420179928 4 | 485958016 4 | 503319936 4 | 536333184 4 | 553256960 4 | 570344448 4 | 570425472 4 | 637083520 4 | 670930944 4 | 687638400 4 | 704225408 4 | 704643072 4 | 838584192 4 | 906278912 4 | 973089280 4 | 1376974976 4 | 1443804928 4 | 1509969792 4 | 














0 7 | 435849344 4 | 437719040 4 | 572102656 4 | 989375488 4 | 989883776 4 | 1526879872 4 | 1543526144 4 | 2174275576 4 | 











0 11 | 419430360 4 | 435720192 6 | 436680960 4 | 502782976 4 | 569983104 4 | 577161600 4 | 704383232 4 | 719709568 4 | 721427584 4 | 1006640256 4 | 1510784256 4 | 1560296192 4 | 1577098112 4 | 













0 8 | 444596480 4 | 472056832 4 | 508729088 4 | 1593863808 4 | 2174615548 4 | 2174984128 4 | 








Heartbeat CPU 0 instructions: 90000003 cycles: 149944576 heartbeat IPC: 0.287161 cumulative IPC: 0.29167 (Simulation time: 0 hr 6 min 1 sec) 















0 10 | 435869632 4 | 436156416 4 | 436729856 4 | 437876736 4 | 509514624 4 | 582369280 4 | 720835712 4 | 729157760 4 | 1006088576 4 | 1022726272 4 | 1023410176 4 | 1610634752 4 | 1627458560 4 | 












0 14 | 419430360 4 | 436170752 4 | 502759552 4 | 511620096 4 | 569936128 4 | 587113472 4 | 587209344 4 | 721018496 4 | 737638656 4 | 738216448 4 | 1006454144 4 | 1039970240 4 | 1040341120 4 | 1577325440 4 | 1643806080 4 | 1644203136 4 | 





0 29 | 419430360 4 | 445112704 4 | 1045934976 4 | 1656773120 4 | 











0 7 | 421502808 4 | 454844800 4 | 473748608 4 | 474501760 4 | 512794496 4 | 586811264 4 | 738039552 4 | 1056634624 4 | 1057044864 4 | 1661031424 4 | 1677736448 4 | 2175180032 4 | 























0 16 | 419430360 4 | 435592576 4 | 440467456 4 | 474963968 4 | 514347008 4 | 591855744 4 | 593108992 4 | 748135040 4 | 750686336 4 | 1686013696 4 | 1694559616 4 | 2174222328 4 | 















Heartbeat CPU 0 instructions: 100000000 cycles: 178085707 heartbeat IPC: 0.355352 cumulative IPC: 0.302513 (Simulation time: 0 hr 6 min 55 sec) 







0 16 | 420765528 4 | 435737024 4 | 1065841024 4 | 

















0 13 | 516673536 4 | 586796160 4 | 597766272 4 | 738009344 4 | 755003776 4 | 1056634112 4 | 1073523968 4 | 1073766912 4 | 1645288576 4 | 1677685376 4 | 1711331072 4 | 1727855872 4 | 1728072832 4 | 



















0 10 | 445722624 4 | 456167424 4 | 476753920 4 | 517918848 4 | 600277376 4 | 1090638848 4 | 1744228608 4 | 1744928128 4 | 2174398400 4 | 

















0 10 | 419430360 4 | 419602392 4 | 477467264 4 | 502801280 4 | 519089408 4 | 570019712 4 | 586632448 4 | 704456448 4 | 737682048 4 | 754742784 4 | 771759744 4 | 973330048 4 | 1039781248 4 | 1073902592 4 | 1106891264 4 | 1107322880 4 | 1511077248 4 | 1643979520 4 | 1712222208 4 | 1761073536 4 | 1761629056 4 | 1778393088 4 | 2174160864 4 | 





0 12 | 520096128 4 | 603982720 4 | 771204608 4 | 





[...]



0 27 | 419426136 4 | 419910936 3 | 419911176 4 | 419911320 4 | 419911368 4 | 419911512 4 | 419911560 4 | 419911704 4 | 419911752 4 | 419911896 4 | 419911944 4 | 419912136 4 | 419912280 4 | 419912328 4 | 419912520 4 | 419912664 4 | 419912712 4 | 419912856 4 | 419913048 4 | 419913096 4 | 419913240 4 | 419913432 4 | 419913672 4 | 419913816 4 | 419913864 4 | 419914008 4 | 419914056 4 | 419914200 4 | 419914248 4 | 419914392 4 | 419914440 4 | 419914584 4 | 419914632 4 | 419914776 4 | 419914824 4 | 419914968 4 | 419915016 4 | 419915160 4 | 419915208 4 | 419915352 4 | 419915400 4 | 419915544 4 | 419915592 4 | 419915736 4 | 419915784 4 | 419915928 4 | 419915976 4 | 419916120 4 | 419916168 4 | 419916312 4 | 419916360 4 | 419916504 4 | 419916552 4 | 419916696 4 | 419916744 4 | 419916888 4 | 419916936 4 | 419917080 4 | 419917128 4 | 419917272 4 | 419917320 4 | 419917464 4 | 419917512 4 | 419917656 4 | 419917704 4 | 419917848 4 | 419917896 4 | 419918040 4 | 419918088 4 | 419918232 4 | 419918280 4 | 419918424 4 | 419918472 4 | 419918616 4 | 419918664 4 | 419918808 4 | 419918856 4 | 419919000 4 | 419919048 4 | 419919192 4 | 419919240 4 | 419919384 4 | 419919432 4 | 419919576 4 | 419919624 4 | 419919768 4 | 419919816 4 | 419919960 4 | 419920008 4 | 419920152 4 | 419920200 4 | 419920344 4 | 419920392 4 | 419920536 4 | 419920584 4 | 419920728 4 | 419920776 4 | 419920920 4 | 419920968 4 | 419921112 4 | 419921160 4 | 419921304 4 | 419921352 4 | 419921496 4 | 419921544 4 | 419921688 4 | 419921736 4 | 419921880 4 | 439358080 4 | 495973760 4 | 677134592 4 | 1401789696 4 | 2174307504 4 | 2174307576 4 | 2174307608 4 | 2174307708 4 | 2174307712 4 | 2174307816 4 | 2174307888 4 | 2174307920 4 | 2174308024 4 | 2174308128 4 | 2174308200 4 | 2174308232 4 | 2174308336 4 | 2174308408 4 | 2174308440 4 | 2174308540 4 | 2174308544 4 | 2174308648 4 | 2174308720 4 | 2174308752 4 | 2174308856 4 | 2174308960 4 | 2174309032 4 | 2174309064 4 | 2174309168 4 | 2174309240 4 | 2174309272 4 | 2174309372 4 | 2174309376 4 | 2174309480 4 | 2174309552 4 | 2174309584 4 | 2174309688 4 | 2174309792 4 | 2174309864 4 | 2174309896 4 | 2174310000 4 | 2174310072 4 | 2174310104 4 | 2174310204 4 | 2174310208 4 | 2174310312 4 | 2174310384 4 | 2174310416 4 | 2174310520 4 | 2174310624 4 | 2174310696 4 | 2174310728 4 | 2174310832 4 | 2174310904 4 | 2174310936 4 | 2174311036 4 | 2174311040 4 | 2174311144 4 | 2174311216 4 | 2174311248 4 | 2174311352 4 | 2174311456 4 | 2174311528 4 | 2174311560 4 | 2174311664 4 | 2174311736 4 | 2174311768 4 | 2174311868 4 | 2174311872 4 | 2174311976 4 | 2174312048 4 | 2174312080 4 | 2174312184 4 | 2174312288 4 | 2174312360 4 | 2174312392 4 | 2174312496 4 | 2174312568 4 | 2174312600 4 | 2174312700 4 | 2174312704 4 | 2174312808 4 | 2174312880 4 | 2174312912 4 | 2174313016 4 | 2174313120 4 | 2174313192 4 | 2174313224 4 | 2174313328 4 | 2174313400 4 | 2174313432 4 | 2174313532 4 | 2174313536 4 | 2174313640 4 | 2174313712 4 | 2174313744 4 | 2174313848 4 | 2174313952 4 | 2174314024 4 | 2174314056 4 | 2174314160 4 | 2174314232 4 | 2174314264 4 | 2174314364 4 | 2174314368 4 | 2174314472 4 | 2174314544 4 | 2174314576 4 | 2174314680 4 | 2174314784 4 | 2174314856 4 | 2174314888 4 | 2174314992 4 | 2174315064 4 | 2174959584 4 | 




0 22 | 419295192 4 | 443123840 4 | 465864704 4 | 496024576 4 | 556719872 4 | 677865984 4 | 1404364160 4 | 2174611392 4 | 











0 27 | 6908000 4 | 419241816 4 | 450748672 4 | 553270016 4 | 670957056 4 | 922358272 4 | 922760832 4 | 1377079680 4 | 1406194688 4 | 1409292032 4 | 






















0 6 | 420736920 4 | 439453336 4 | 466636800 4 | 497688576 4 | 559808640 4 | 684048512 4 | 1426293760 4 | 2174771136 4 | 




















0 9 | 435644416 4 | 435705856 4 | 437550976 4 | 443498496 4 | 498896512 4 | 553270272 4 | 670957696 4 | 687489536 4 | 687871104 4 | 922528256 4 | 939396224 4 | 939525888 4 | 1377082240 4 | 1425487488 4 | 1442634624 4 | 1442846976 4 | 2174390184 4 | 




Heartbeat CPU 0 instructions: 250000000 cycles: 704239452 heartbeat IPC: 0.234075 cumulative IPC: 0.289253 (Simulation time: 0 hr 22 min 24 sec) 













0 7 | 451707904 4 | 468357632 4 | 500685056 4 | 956213504 4 | 956309760 4 | 1442743808 4 | 1459626368 4 | 1476476032 4 | 













0 6 | 419430360 4 | 435712256 4 | 435841536 4 | 485967488 4 | 536352128 4 | 553222272 4 | 570337024 4 | 637121280 4 | 670861568 4 | 687444224 4 | 704651008 4 | 838659584 4 | 906140160 4 | 973082368 4 | 1241736320 4 | 1376697344 4 | 1493178496 4 | 1509954048 4 | 2047889792 4 | 













0 21 | 469425408 4 | 503317504 4 | 570430336 4 | 570953088 4 | 704412416 4 | 973241856 4 | 1527139712 4 | 

















0 11 | 469138176 4 | 469763712 4 | 502693504 4 | 504792448 4 | 569804032 4 | 989364480 4 | 989863552 4 | 1544107520 4 | 2174169080 4 | 













0 19 | 6908000 4 | 419430360 4 | 435720192 6 | 502938112 4 | 505870360 4 | 719316224 4 | 721441024 4 | 989574016 4 | 1006649728 4 | 1513266432 4 | 1543565056 4 | 1560304768 4 | 1577068160 4 | 2175008672 4 | 















Heartbeat CPU 0 instructions: 260000002 cycles: 731307477 heartbeat IPC: 0.36944 cumulative IPC: 0.292274 (Simulation time: 0 hr 23 min 16 sec) 






0 5 | 440082432 4 | 453689344 4 | 471626368 4 | 1593832960 4 | 1593854464 4 | 

















0 13 | 419790744 4 | 444715008 4 | 444854912 4 | 508501248 4 | 581681152 4 | 721389568 4 | 1023369856 4 | 1023426816 4 | 1610634112 4 | 















0 14 | 419430360 4 | 435875584 4 | 435876288 4 | 454362624 4 | 473161728 4 | 585862528 4 | 736202752 4 | 1627417344 4 | 1638195456 4 | 

















0 23 | 435732480 4 | 502927488 4 | 509109888 4 | 570272128 4 | 587201152 4 | 587204352 4 | 704961408 4 | 738224256 4 | 974339840 4 | 1007588864 4 | 1040191360 4 | 1513096832 4 | 1579594752 4 | 1612013696 4 | 1644215040 4 | 1661017216 4 | 2174918608 4 | 















0 9 | 438011416 4 | 445403392 4 | 513707392 4 | 1057055488 4 | 1645530368 4 | 1677729792 4 | 1693974016 4 | 1694510464 4 | 















0 9 | 420274008 4 | 436828672 4 | 445414784 4 | 475947904 4 | 515811456 4 | 586828672 4 | 754876928 4 | 754981120 4 | 1040565760 4 | 1073754368 4 | 1645548544 4 | 1694059392 4 | 1711291136 4 | 1728059648 4 | 
Heartbeat CPU 0 instructions: 270000002 cycles: 752980253 heartbeat IPC: 0.461408 cumulative IPC: 0.297226 (Simulation time: 0 hr 24 min 8 sec) 














0 8 | 440668288 4 | 455934720 4 | 754450304 4 | 1090300160 4 | 1090525824 4 | 1744894208 4 | 















0 11 | 419430360 4 | 435912704 4 | 502857344 4 | 519440256 4 | 570131840 4 | 586813056 4 | 603397120 4 | 603982080 4 | 704680704 4 | 738043136 4 | 754689920 4 | 771211264 4 | 771778944 4 | 973778432 4 | 1040503296 4 | 1073796864 4 | 1106741120 4 | 1107300608 4 | 1511974016 4 | 1645423744 4 | 1712010880 4 | 1761628928 4 | 1778511104 4 | 















0 20 | 436910720 4 | 436911104 4 | 436912128 4 | 520093824 4 | 1115955840 4 | 1795217536 4 | 2173935600 4 | 




















0 25 | 419430360 4 | 421531680 4 | 520773632 4 | 605962240 4 | 776339456 4 | 777494656 4 | 1119408256 4 | 2173812672 4 | 















0 17 | 519521536 4 | 603460096 4 | 771337216 4 | 1107091584 4 | 1123917568 4 | 1124150016 4 | 1812037888 4 | 1828811776 4 | 



Heartbeat CPU 0 instructions: 280000000 cycles: 778944216 heartbeat IPC: 0.385149 cumulative IPC: 0.300206 (Simulation time: 0 hr 25 min 0 sec) 













0 8 | 457674752 4 | 479764608 4 | 519518208 4 | 603453440 4 | 612303104 4 | 771323904 4 | 788511744 4 | 788540672 4 | 1107064960 4 | 1140900992 4 | 1778546944 4 | 1845614848 4 | 












0 9 | 419430360 4 | 435626496 4 | 480413056 4 | 1157597056 4 | 1157650048 4 | 1862334720 4 | 1879100544 4 | 














0 18 | 6908000 4 | 446984576 4 | 617123456 4 | 798664064 4 | 1895855616 4 | 













0 10 | 519511296 4 | 603439616 4 | 620689664 4 | 620765568 4 | 771296256 4 | 788179584 4 | 805321600 4 | 1107009536 4 | 1140776192 4 | 1174391296 4 | 1174415872 4 | 1845969536 4 | 1912613248 4 | 1929764480 4 | 2174635936 4 | 




















0 6 | 419430360 4 | 435675904 4 | 459337728 4 | 625627264 4 | 815759488 4 | 1190893696 4 | 1191194112 4 | 1913587968 4 | 1946157696 4 | 2174062584 4 | 








0 17 | 447586432 4 | 1203772800 4 | 1962936832 4 | 







Heartbeat CPU 0 instructions: 290000003 cycles: 811423628 heartbeat IPC: 0.307887 cumulative IPC: 0.300518 (Simulation time: 0 hr 26 min 3 sec) 


0 27 | 6908000 4 | 419430360 4 | 421396440 4 | 441587968 4 | 531696768 4 | 620374272 4 | 627810560 4 | 805165696 4 | 822020992 4 | 822088448 4 | 1174748544 4 | 1204441048 4 | 1207966208 4 | 1913914112 4 | 1946820864 4 | 1973312000 4 | 1979734272 4 | 















0 8 | 460219008 4 | 484336000 4 | 1224639360 4 | 1224816000 4 | 1996491264 4 | 2013272320 4 | 













0 4 | 502747136 4 | 519472640 4 | 536894976 4 | 569911296 4 | 603362432 4 | 620374272 4 | 637551744 4 | 704239744 4 | 771141888 4 | 805165568 4 | 821494016 4 | 838940032 4 | 972896640 4 | 1106700800 4 | 1174748288 4 | 1207405056 4 | 1241829504 4 | 1510210432 4 | 1777818624 4 | 1913913600 4 | 1979227136 4 | 2030157952 4 | 2048076032 4 | 2064121472 4 | 

















0 10 | 435981504 4 | 548660608 4 | 637191168 4 | 654386048 4 | 838799360 4 | 855644800 4 | 873189120 4 | 889559424 4 | 1258333440 4 | 1275205120 4 | 1293027328 4 | 1310795264 4 | 1325593856 4 | 1343536000 4 | 1359657984 4 | 2080948864 4 | 2097857152 4 | 2114827264 4 | 2131304704 4 | 2150471680 4 | 2174427104 4 | 












0 11 | 503023488 4 | 503376512 4 | 553747840 4 | 570554496 4 | 587305216 4 | 671321216 4 | 687865984 4 | 705526144 4 | 721799296 4 | 738293888 4 | 906299392 4 | 922921088 4 | 939621120 4 | 956881664 4 | 975469440 4 | 990565120 4 | 1008015616 4 | 1023716992 4 | 1040743040 4 | 1377015936 4 | 1393889792 4 | 1409876352 4 | 1427350144 4 | 1443659392 4 | 1460726784 4 | 1478180352 4 | 1495453056 4 | 1515355904 4 | 1527208576 4 | 1543798912 4 | 1561051264 4 | 1580448256 4 | 1594560000 4 | 1611851136 4 | 1627457024 4 | 1644758144 4 | 













0 4 | 435593152 4 | 435664896 4 | 435910680 4 | 519506944 4 | 519871616 4 | 520123776 4 | 603431040 4 | 603985920 4 | 620917248 4 | 755084160 4 | 771985408 4 | 788598528 4 | 805672960 4 | 1057255552 4 | 1073849088 4 | 1090747648 4 | 1107407232 4 | 1124439168 4 | 1141020160 4 | 1157805440 4 | 1174709504 4 | 1661943680 4 | 1678928256 4 | 1694622720 4 | 1712115200 4 | 1728585472 4 | 1745912320 4 | 1761809280 4 | 1779231616 4 | 1796522240 4 | 1813295488 4 | 1829425792 4 | 1846457472 4 | 1863416960 4 | 1879620608 4 | 1897696128 4 | 1913980416 4 | 











0 8 | 419430360 4 | 435600384 4 | 435659136 4 | 435773568 4 | 435948928 4 | 446230488 4 | 486480768 4 | 487414016 4 | 520195456 4 | 539245184 4 | 554945024 4 | 577328640 4 | 620197376 4 | 642907520 4 | 659630336 4 | 674307072 4 | 688765696 4 | 719074304 4 | 735344768 4 | 741838336 4 | 774083456 4 | 822147712 4 | 850232064 4 | 857953280 4 | 883677824 4 | 893790720 4 | 913031296 4 | 929705088 4 | 941948416 4 | 968692608 4 | 973124608 4 | 1022895872 4 | 1035106560 4 | 1048093824 4 | 1061564288 4 | 1083747200 4 | 1112584064 4 | 1128451584 4 | 1157026688 4 | 1191489920 4 | 1208712448 4 | 1225299456 4 | 1249806976 4 | 1264881280 4 | 1280323584 4 | 1295639808 4 | 1310204416 4 | 1331772800 4 | 1351998592 4 | 1362179712 4 | 1390479616 4 | 1395728384 4 | 1423827200 4 | 1435993600 4 | 1448313984 4 | 1468591488 4 | 1477960192 4 | 1510666368 4 | 1535934976 4 | 1546711424 4 | 1579744640 4 | 1610208896 4 | 1626059776 4 | 1634630272 4 | 1660604800 4 | 1677366784 4 | 1687545728 4 | 1695377280 4 | 1716705664 4 | 1731911424 4 | 1758745088 4 | 1852440064 4 | 1885011200 4 | 1931693952 4 | 1947396864 4 | 1964176256 4 | 1981842048 4 | 1997226112 4 | 2015015936 4 | 2030345088 4 | 2049408128 4 | 2064031104 4 | 2094179584 4 | 2113868800 4 | 2125064192 4 | 2132763008 4 | 2155696640 4 | 





0 15 | 435593216 4 | 458758528 4 | 503053568 4 | 519923584 4 | 536960128 4 | 570524160 4 | 638337408 4 | 705465344 4 | 772945792 4 | 774323328 4 | 805152640 4 | 806189056 4 | 823824640 4 | 839180672 4 | 975347840 4 | 1110308608 4 | 1204722560 4 | 1208317568 4 | 1235186048 4 | 1242778368 4 | 1515112704 4 | 1785034368 4 | 1913861632 4 | 1938210944 4 | 1946716288 4 | 1973862144 4 | 1981052160 4 | 2009194880 4 | 2016322688 4 | 2034789248 4 | 2049973888 4 | 2067228928 4 | 









0 20 | 6908000 4 | 419430360 4 | 435584640 4 | 435589248 4 | 435595392 4 | 435596736 4 | 435596800 4 | 435597056 4 | 435597952 4 | 435607936 4 | 435608152 4 | 435609624 4 | 435633432 4 | 435722392 4 | 435722496 4 | 435785240 4 | 435785280 4 | 435785344 4 | 436392576 4 | 486439808 4 | 520253056 4 | 539214976 4 | 554303488 4 | 587606784 4 | 604212096 4 | 620872064 4 | 642846976 4 | 655553536 4 | 667721344 4 | 671520640 4 | 682466816 4 | 688127488 4 | 721426688 4 | 739630720 4 | 756070400 4 | 772841344 4 | 806161280 4 | 823320320 4 | 850111104 4 | 856925824 4 | 875524096 4 | 890546304 4 | 907458432 4 | 923709312 4 | 940672000 4 | 959147264 4 | 991956096 4 | 1007270528 4 | 1026529024 4 | 1043678592 4 | 1059563776 4 | 1076382336 4 | 1093228672 4 | 1125441920 4 | 1142068480 4 | 1158188800 4 | 1176739712 4 | 1195875072 4 | 1211057664 4 | 1229350272 4 | 1250213888 4 | 1260598016 4 | 1278268800 4 | 1291932288 4 | 1315465344 4 | 1332286976 4 | 1343057920 4 | 1343142016 4 | 1363565184 4 | 1376079104 4 | 1395574144 4 | 1411835776 4 | 1435232256 4 | 1445495552 4 | 1461757952 4 | 1482711680 4 | 1497795072 4 | 1529225728 4 | 1548329344 4 | 1560767872 4 | 1581255040 4 | 1600670208 4 | 1617475072 4 | 1629414144 4 | 1651774208 4 | 1665695360 4 | 1683544704 4 | 1699662848 4 | 1717181824 4 | 1737424256 4 | 1750874368 4 | 1765968512 4 | 1784716800 4 | 1798737280 4 | 1815300864 4 | 1832131712 4 | 1848553984 4 | 1866499456 4 | 1884605056 4 | 1896949888 4 | 1933252096 4 | 1954502272 4 | 1968819968 4 | 1984353920 4 | 2008000128 4 | 2022421632 4 | 2030093312 4 | 2080813824 4 | 2098147840 4 | 2120954624 4 | 2138470144 4 | 2148281600 4 | 2175139812 4 | 



Heartbeat CPU 0 instructions: 300000002 cycles: 847264867 heartbeat IPC: 0.279008 cumulative IPC: 0.299594 (Simulation time: 0 hr 27 min 12 sec) 
Finished CPU 0 instructions: 250000003 cycles: 834461515 cumulative IPC: 0.299594 (Simulation time: 0 hr 27 min 12 sec) 

ChampSim completed all CPUs

Region of Interest Statistics

CPU 0 cumulative IPC: 0.299594 instructions: 250000003 cycles: 834461515
cpu0_DTLB TOTAL     ACCESS:   54448231  HIT:   53294504  MISS:    1153727
cpu0_DTLB LOAD      ACCESS:   31844850  HIT:   30695501  MISS:    1149349
cpu0_DTLB RFO       ACCESS:   22603381  HIT:   22599003  MISS:       4378
cpu0_DTLB PREFETCH  ACCESS:          0  HIT:          0  MISS:          0
cpu0_DTLB WRITEBACK ACCESS:          0  HIT:          0  MISS:          0
cpu0_DTLB TRANSLATION ACCESS:          0  HIT:          0  MISS:          0
cpu0_DTLB PREFETCH  REQUESTED:          0  ISSUED:          0  USEFUL:          0  USELESS:          0
cpu0_DTLB AVERAGE MISS LATENCY: 55.2854 cycles
cpu0_ITLB TOTAL     ACCESS:   17725196  HIT:   17725196  MISS:          0
cpu0_ITLB LOAD      ACCESS:   17725196  HIT:   17725196  MISS:          0
cpu0_ITLB RFO       ACCESS:          0  HIT:          0  MISS:          0
cpu0_ITLB PREFETCH  ACCESS:          0  HIT:          0  MISS:          0
cpu0_ITLB WRITEBACK ACCESS:          0  HIT:          0  MISS:          0
cpu0_ITLB TRANSLATION ACCESS:          0  HIT:          0  MISS:          0
cpu0_ITLB PREFETCH  REQUESTED:          0  ISSUED:          0  USEFUL:          0  USELESS:          0
cpu0_ITLB AVERAGE MISS LATENCY: -nan cycles
cpu0_STLB TOTAL     ACCESS:    1153727  HIT:     419887  MISS:     733840
cpu0_STLB LOAD      ACCESS:    1149349  HIT:     415555  MISS:     733794
cpu0_STLB RFO       ACCESS:       4378  HIT:       4332  MISS:         46
cpu0_STLB PREFETCH  ACCESS:          0  HIT:          0  MISS:          0
cpu0_STLB WRITEBACK ACCESS:          0  HIT:          0  MISS:          0
cpu0_STLB TRANSLATION ACCESS:          0  HIT:          0  MISS:          0
cpu0_STLB PREFETCH  REQUESTED:          0  ISSUED:          0  USEFUL:          0  USELESS:          0
cpu0_STLB AVERAGE MISS LATENCY: 72.7671 cycles
cpu0_L1D TOTAL     ACCESS:   96283710  HIT:   88888645  MISS:    7395065
cpu0_L1D LOAD      ACCESS:   34632427  HIT:   27257703  MISS:    7374724
cpu0_L1D RFO       ACCESS:   60929491  HIT:   60928796  MISS:        695
cpu0_L1D PREFETCH  ACCESS:          0  HIT:          0  MISS:          0
cpu0_L1D WRITEBACK ACCESS:          0  HIT:          0  MISS:          0
cpu0_L1D TRANSLATION ACCESS:     721792  HIT:     702146  MISS:      19646
cpu0_L1D PREFETCH  REQUESTED:          0  ISSUED:          0  USEFUL:          0  USELESS:          0
cpu0_L1D AVERAGE MISS LATENCY: 365.699 cycles
cpu0_L2C TOTAL     ACCESS:   10630983  HIT:    3400937  MISS:    7230046
cpu0_L2C LOAD      ACCESS:    7374272  HIT:     155475  MISS:    7218797
cpu0_L2C RFO       ACCESS:        695  HIT:        593  MISS:        102
cpu0_L2C PREFETCH  ACCESS:          0  HIT:          0  MISS:          0
cpu0_L2C WRITEBACK ACCESS:    3236370  HIT:    3232289  MISS:       4081
cpu0_L2C TRANSLATION ACCESS:      19646  HIT:      12580  MISS:       7066
cpu0_L2C PREFETCH  REQUESTED:          0  ISSUED:          0  USEFUL:          0  USELESS:          0
cpu0_L2C AVERAGE MISS LATENCY: 362.655 cycles
LLC TOTAL     ACCESS:   10341339  HIT:    3207125  MISS:    7134214
LLC LOAD      ACCESS:    7218791  HIT:      90228  MISS:    7128563
LLC RFO       ACCESS:        102  HIT:         33  MISS:         69
LLC PREFETCH  ACCESS:          0  HIT:          0  MISS:          0
LLC WRITEBACK ACCESS:    3115380  HIT:    3112916  MISS:       2464
LLC TRANSLATION ACCESS:       7066  HIT:       3948  MISS:       3118
LLC PREFETCH  REQUESTED:          0  ISSUED:          0  USEFUL:          0  USELESS:          0
LLC AVERAGE MISS LATENCY: 346.256 cycles

DRAM Statistics
 CHANNEL 0
 RQ ROW_BUFFER_HIT:      51755  ROW_BUFFER_MISS:    7079786
 DBUS AVG_CONGESTED_CYCLE:    3.95664
 WQ ROW_BUFFER_HIT:      45548  ROW_BUFFER_MISS:    3013294  FULL:          0


CPU 0 Branch Prediction Accuracy: 96.0049% MPKI: 3.6051 Average ROB Occupancy at Mispredict: 120.567
Branch type MPKI
BRANCH_DIRECT_JUMP: 0
BRANCH_INDIRECT: 0
BRANCH_CONDITIONAL: 3.6051
BRANCH_DIRECT_CALL: 0
BRANCH_INDIRECT_CALL: 0
BRANCH_RETURN: 0

