
*** ChampSim Multicore Out-of-Order Simulator ***

Warmup Instructions: 50000000
Simulation Instructions: 250000000
Number of CPUs: 1
Off-chip DRAM Size: 4 GiB Channels: 1 Width: 64-bit Data Rate: 3200 MT/s

VirtualMemory physical capacity: 8588881920 num_ppages: 2096895
VirtualMemory page size: 4096 log2_page_size: 12

CPU 0 runs Trace/401.bzip2-7B.champsimtrace.xz
CPU 0 Bimodal branch predictor
Basic BTB sets: 1024 ways: 8 indirect buffer size: 4096 RAS size: 64


























































Heartbeat CPU 0 instructions: 10000000 cycles: 2993460 heartbeat IPC: 3.34062 cumulative IPC: 3.34062 (Simulation time: 0 hr 0 min 24 sec) 
























































Heartbeat CPU 0 instructions: 20000003 cycles: 5799704 heartbeat IPC: 3.56348 cumulative IPC: 3.44845 (Simulation time: 0 hr 0 min 45 sec) 
















4198656 1 | 4198720 1 | 4198784 1 | 4198851 1 | 4198914 1 | 4198981 1 | 4199040 1 | 4199108 1 | 4199170 1 | 4199232 1 | 4200345 1 | 4200420 1 | 4200448 1 | 4200513 1 | 4200608 1 | 4200645 1 | 4200711 1 | 4200774 1 | 4200836 1 | 4200896 1 | 4200962 1 | 4201028 1 | 4201090 1 | 4201168 1 | 4201216 1 | 4201282 1 | 4201346 1 | 4201420 1 | 4201476 1 | 4201552 1 | 4201602 1 | 4201668 1 | 4201770 1 | 4201793 1 | 4201857 1 | 4201920 1 | 4201984 1 | 4202050 1 | 4202112 1 | 4202179 1 | 4202241 1 | 4202310 1 | 4202369 1 | 4202433 1 | 4202501 1 | 4202565 1 | 4202664 1 | 4202688 1 | 4202756 1 | 4202852 6 | 4202883 1 | 4202949 1 | 4203009 1 | 4203103 1 | 4203184 1 | 4203200 1 | 4203267 1 | 4203353 1 | 4203394 1 | 4203481 1 | 4203526 1 | 4203585 1 | 4203688 1 | 4665480 1 | 923554012 1 | 923554096 1 | 923554124 1 | 923554224 1 | 923555036 1 | 923555120 1 | 923555148 1 | 923555248 1 | 923556060 1 | 923556144 1 | 923556172 1 | 923556272 1 | 923557084 1 | 923557168 1 | 923557196 1 | 923557296 1 | 923558108 1 | 923558196 1 | 923558220 1 | 923558320 1 | 923559132 1 | 923559216 1 | 923559244 1 | 923559344 1 | 923560156 1 | 923560240 1 | 923560268 1 | 923560368 1 | 923561184 1 | 923561268 1 | 923561296 1 | 923561396 1 | 923562204 1 | 923562288 1 | 923562316 1 | 923562416 1 | 923563228 1 | 923563312 1 | 923563340 1 | 923563440 1 | 923564252 1 | 923564340 1 | 923564368 1 | 923564464 1 | 923565276 1 | 923565360 1 | 923565388 1 | 923565488 1 | 923566300 1 | 923566384 1 | 923566412 1 | 923566512 1 | 923567324 1 | 923567412 1 | 923567436 1 | 923567536 1 | 923568352 1 | 923568432 1 | 923568464 1 | 923568564 1 | 923569376 1 | 923569456 1 | 923569488 1 | 923569588 1 | 923570400 1 | 923570484 1 | 923570512 1 | 923570612 1 | 923571420 1 | 923571508 1 | 923571532 1 | 923571632 1 | 923572444 1 | 923572528 1 | 923572556 1 | 923572656 1 | 923573468 1 | 923573552 1 | 923573580 1 | 923573680 1 | 923574496 1 | 923574580 1 | 923574608 1 | 923574704 1 | 923575520 1 | 923575604 1 | 923575632 1 | 923575732 1 | 923576540 1 | 923576628 1 | 923576652 1 | 923576752 1 | 923577564 1 | 923577648 1 | 923577676 1 | 923577780 1 | 923578592 1 | 923578672 1 | 923578704 1 | 923578800 1 | 923579616 1 | 923579700 1 | 923579728 1 | 923579828 1 | 923580636 1 | 923580720 1 | 923580748 1 | 923580852 1 | 923581660 1 | 923581748 1 | 923581772 1 | 923581876 1 | 923582684 1 | 923582768 1 | 923582796 1 | 923582900 1 | 923583708 1 | 923583792 1 | 923583824 1 | 923583924 1 | 923584736 1 | 923584816 1 | 923584848 1 | 923584948 1 | 923585756 1 | 923585844 1 | 923585868 1 | 923585972 1 | 923586780 1 | 923586868 1 | 923586892 1 | 923586996 1 | 923587804 1 | 923587888 1 | 923587916 1 | 923588020 1 | 923588832 1 | 923588912 1 | 923588940 1 | 923589044 1 | 923589856 1 | 923589940 1 | 923589968 1 | 923590064 1 | 923590876 1 | 923590960 1 | 923590988 1 | 923591092 1 | 923591900 1 | 923591984 1 | 923592012 1 | 923592116 1 | 923592924 1 | 923593008 1 | 923593036 1 | 923593140 1 | 923593952 1 | 923594032 1 | 923594064 1 | 923594164 1 | 923594976 1 | 923595060 1 | 923595088 1 | 923595188 1 | 923595996 1 | 923596080 1 | 923596108 1 | 923596212 1 | 923597020 1 | 923597104 1 | 923597132 1 | 923597236 1 | 923598044 1 | 923598128 1 | 923598156 1 | 923598260 1 | 923599072 1 | 923599156 1 | 923599184 1 | 923599284 1 | 923600096 1 | 923600176 1 | 923600208 1 | 923600308 1 | 923601116 1 | 923601200 1 | 923601228 1 | 923601332 1 | 923602140 1 | 923602224 1 | 923602252 1 | 923602356 1 | 923603164 1 | 923603248 1 | 923603276 1 | 923603380 1 | 923603984 1 | 923604032 1 | 923604096 1 | 923604188 1 | 923604272 1 | 923604300 1 | 923604352 1 | 923604416 1 | 923604480 1 | 923604544 1 | 923604608 1 | 923604672 1 | 923604736 1 | 923604800 1 | 923604864 1 | 923604928 1 | 923604992 1 | 923605056 1 | 923605120 1 | 923605212 1 | 923605300 1 | 923605324 1 | 923605376 1 | 923605440 1 | 923605508 1 | 923605568 1 | 923605632 1 | 923605696 1 | 923605760 1 | 923605824 1 | 923605888 1 | 923605952 1 | 923606032 1 | 923606080 1 | 923606144 1 | 923606208 1 | 923606320 1 | 923606348 1 | 923606400 1 | 923606464 1 | 923606532 1 | 923606592 1 | 923606656 1 | 923606720 1 | 923606784 1 | 923606848 1 | 923606912 1 | 923606976 1 | 923607040 1 | 923607104 1 | 923607168 1 | 923607264 1 | 923607344 1 | 923607376 1 | 923607424 1 | 923607488 1 | 923607552 1 | 923607616 1 | 923607680 1 | 923607744 1 | 923607808 1 | 923607872 1 | 923607936 1 | 923608000 1 | 923608064 1 | 923608284 1 | 923608368 1 | 923608396 1 | 923608500 1 | 923609312 1 | 923609396 1 | 923609424 1 | 923609524 1 | 923610332 1 | 923610416 1 | 923610444 1 | 923610548 1 | 923611356 1 | 923611440 1 | 923611468 1 | 923611572 1 | 923612380 1 | 923612464 1 | 923612492 1 | 923612596 1 | 923613408 1 | 923613488 1 | 923613520 1 | 923613620 1 | 923614428 1 | 923614512 1 | 923614540 1 | 923614644 1 | 923615452 1 | 923615536 1 | 923615564 1 | 923615668 1 | 923616476 1 | 923616564 1 | 923616588 1 | 923616692 1 | 923617500 1 | 923617584 1 | 923617612 1 | 923617716 1 | 923618524 1 | 923618608 1 | 923618636 1 | 923618740 1 | 923619552 1 | 923619632 1 | 923619664 1 | 923619764 1 | 923620576 1 | 923620656 1 | 923620688 1 | 923620784 1 | 923621596 1 | 923621680 1 | 923621708 1 | 923621812 1 | 923622620 1 | 923622704 1 | 923622732 1 | 923622836 1 | 923623644 1 | 923623728 1 | 923623756 1 | 923623860 1 | 923624668 1 | 923624752 1 | 923624780 1 | 923624884 1 | 923625692 1 | 923625780 1 | 923625804 1 | 923625908 1 | 923626716 1 | 923626800 1 | 923626828 1 | 923626932 1 | 923627536 1 | 923627664 1 | 923627712 1 | 923627780 1 | 923627840 1 | 923627904 1 | 923627968 1 | 923628036 1 | 923628096 1 | 923628160 1 | 923628224 1 | 923628288 1 | 923628352 1 | 923628416 1 | 923628480 1 | 923628544 1 | 923628764 1 | 923628848 1 | 923628876 1 | 923628980 1 | 923629788 1 | 923629872 1 | 923629900 1 | 923630004 1 | 923630812 1 | 923630896 1 | 923630924 1 | 923631028 1 | 923631632 1 | 923631680 1 | 923631744 1 | 923631808 1 | 923631924 1 | 923631948 1 | 923632004 1 | 923632052 1 | 923632064 1 | 923632132 1 | 923632192 1 | 923632256 1 | 923632320 1 | 923632384 1 | 923632448 1 | 923632512 1 | 923632576 1 | 923632640 1 | 923632860 1 | 923632944 1 | 923632972 1 | 923633076 1 | 923633680 1 | 923633728 1 | 923633792 1 | 923633856 1 | 923633972 1 | 923633996 1 | 923634048 1 | 923634100 1 | 923634112 1 | 923634180 1 | 923634240 1 | 923634304 1 | 923634368 1 | 923634432 1 | 923634496 1 | 923634560 1 | 923634624 1 | 923634704 1 | 923634752 1 | 923634816 1 | 923634880 1 | 923634992 1 | 923635008 1 | 923635076 1 | 923635124 1 | 923635136 1 | 923635204 1 | 923635264 1 | 923635328 1 | 923635392 1 | 923635456 1 | 923635520 1 | 923635584 1 | 923635648 1 | 923635712 1 | 923635932 1 | 923636016 1 | 923636044 1 | 923636148 1 | 923636956 1 | 923637040 1 | 923637068 1 | 923637172 1 | 923637776 1 | 923637824 1 | 923637888 1 | 923637952 1 | 923638064 1 | 923638092 1 | 923638148 1 | 923638208 1 | 923638276 1 | 923638336 1 | 923638400 1 | 923638464 1 | 923638528 1 | 923638592 1 | 923638656 1 | 923638720 1 | 923638784 1 | 923639004 1 | 923639088 1 | 923639116 1 | 923639220 1 | 923639824 1 | 923639872 1 | 923639936 1 | 923640000 1 | 923640112 1 | 923640140 1 | 923640192 1 | 923640256 1 | 923640320 1 | 923640384 1 | 923640448 1 | 923640512 1 | 923640576 1 | 923640640 1 | 923640704 1 | 923640768 1 | 923640832 1 | 923641052 1 | 923641136 1 | 923641164 1 | 923641268 1 | 923642076 1 | 923642160 1 | 923642188 1 | 923642292 1 | 923643100 1 | 923643184 1 | 923643212 1 | 923643312 1 | 923644124 1 | 923644212 1 | 923644236 1 | 923644340 1 | 923645148 1 | 923645232 1 | 923645260 1 | 923645364 1 | 923646176 1 | 923646256 1 | 923646284 1 | 923646388 1 | 923647196 1 | 923647280 1 | 923647308 1 | 923647412 1 | 923648224 1 | 923648308 1 | 923648332 1 | 923648436 1 | 923649244 1 | 923649328 1 | 923649356 1 | 923649460 1 | 923650268 1 | 923650352 1 | 923650380 1 | 923650484 1 | 923651292 1 | 923651376 1 | 923651404 1 | 923651508 1 | 923652320 1 | 923652400 1 | 923652428 1 | 923652532 1 | 923653340 1 | 923653424 1 | 923653452 1 | 923653556 1 | 923654368 1 | 923654448 1 | 923654476 1 | 923654580 1 | 923655388 1 | 923655472 1 | 923655500 1 | 923655604 1 | 923656412 1 | 923656496 1 | 923656524 1 | 923656628 1 | 923657436 1 | 923657520 1 | 923657552 1 | 923657652 1 | 923658460 1 | 923658548 1 | 923658572 1 | 923658676 1 | 923659280 1 | 923659328 1 | 923659392 1 | 923659484 1 | 923659524 1 | 923659568 1 | 923659584 1 | 923659596 1 | 923659700 1 | 923659712 1 | 923659776 1 | 923659840 1 | 923659904 1 | 923659968 1 | 923660032 1 | 923660096 1 | 923660160 1 | 923660224 1 | 923660304 1 | 923660352 1 | 923660416 1 | 923660508 1 | 923660544 1 | 923660592 1 | 923660608 1 | 923660620 1 | 923660672 1 | 923660736 1 | 923660800 1 | 923660864 1 | 923660928 1 | 923660992 1 | 923661056 1 | 923661120 1 | 923661184 1 | 923661248 1 | 923661312 1 | 923661532 1 | 923661616 1 | 923661644 1 | 923661748 1 | 923662556 1 | 923662640 1 | 923662672 1 | 923662772 1 | 923663580 1 | 923663664 1 | 923663692 1 | 923663796 1 | 923664608 1 | 923664692 1 | 923664720 1 | 923664820 1 | 923665628 1 | 923665712 1 | 923665740 1 | 923665844 1 | 923666656 1 | 923666740 1 | 923666764 1 | 923666868 1 | 923667676 1 | 923667760 1 | 923667788 1 | 923667892 1 | 923668700 1 | 923668784 1 | 923668816 1 | 923668916 1 | 923669724 1 | 923669808 1 | 923669836 1 | 923669940 1 | 923670752 1 | 923670832 1 | 923670864 1 | 923670964 1 | 923671772 1 | 923671856 1 | 923671884 1 | 923671988 1 | 923672800 1 | 923672880 1 | 923672908 1 | 923673012 1 | 923673820 1 | 923673904 1 | 923673932 1 | 923674036 1 | 923674844 1 | 923674932 1 | 923674960 1 | 923675060 1 | 923675868 1 | 923675952 1 | 923675980 1 | 923676080 1 | 923676896 1 | 923676976 1 | 923677008 1 | 923677108 1 | 923677916 1 | 923678000 1 | 923678028 1 | 923678132 1 | 923678940 1 | 923679024 1 | 923679052 1 | 923679156 1 | 923679964 1 | 923680048 1 | 923680076 1 | 923680180 1 | 923680988 1 | 923681072 1 | 923681104 1 | 923681204 1 | 923682012 1 | 923682096 1 | 923682124 1 | 923682228 1 | 923683036 1 | 923683124 1 | 923683152 1 | 923683252 1 | 923684060 1 | 923684144 1 | 923684172 1 | 923684276 1 | 923685084 1 | 923685168 1 | 923685196 1 | 923685300 1 | 923686108 1 | 923686192 1 | 923686220 1 | 923686324 1 | 923687132 1 | 923687216 1 | 923687248 1 | 923687348 1 | 923688156 1 | 923688240 1 | 923688268 1 | 923688372 1 | 923689180 1 | 923689264 1 | 923689296 1 | 923689396 1 | 923690204 1 | 923690288 1 | 923690316 1 | 923690420 1 | 923691228 1 | 923691316 1 | 923691340 1 | 923691444 1 | 923692252 1 | 923692336 1 | 923692364 1 | 923692468 1 | 923693276 1 | 923693360 1 | 923693392 1 | 923693492 1 | 923694300 1 | 923694384 1 | 923694412 1 | 923694516 1 | 923695324 1 | 923695408 1 | 923695436 1 | 923695540 1 | 923696352 1 | 923696432 1 | 923696460 1 | 923696564 1 | 923697372 1 | 923697456 1 | 923697484 1 | 923697588 1 | 923698396 1 | 923698484 1 | 923698508 1 | 923698612 1 | 923699420 1 | 923699504 1 | 923699532 1 | 923699636 1 | 923700444 1 | 923700528 1 | 923700556 1 | 923700660 1 | 923701468 1 | 923701552 1 | 923701580 1 | 923701684 1 | 923702496 1 | 923702576 1 | 923702604 1 | 923702708 1 | 923703516 1 | 923703600 1 | 923703628 1 | 923703732 1 | 923704540 1 | 923704624 1 | 923704652 1 | 923704756 1 | 923705564 1 | 923705652 1 | 923705676 1 | 923705780 1 | 923706588 1 | 923706672 1 | 923706700 1 | 923706804 1 | 923707612 1 | 923707700 1 | 923707724 1 | 923707828 1 | 923708640 1 | 923708720 1 | 923708748 1 | 923708852 1 | 923709660 1 | 923709744 1 | 923709772 1 | 923709876 1 | 923710684 1 | 923710768 1 | 923710796 1 | 923710900 1 | 923711708 1 | 923711792 1 | 923711820 1 | 923711924 1 | 923712732 1 | 923712816 1 | 923712848 1 | 923712948 1 | 923713760 1 | 923713844 1 | 923713868 1 | 923713972 1 | 923714780 1 | 923714864 1 | 923714892 1 | 923714996 1 | 923715804 1 | 923715892 1 | 923715916 1 | 923716020 1 | 923716828 1 | 923716912 1 | 923716940 1 | 923717044 1 | 923717852 1 | 923717936 1 | 923717964 1 | 923718068 1 | 923718876 1 | 923718960 1 | 923718988 1 | 923719092 1 | 923719900 1 | 923719984 1 | 923720012 1 | 923720116 1 | 923720924 1 | 923721008 1 | 923721036 1 | 923721140 1 | 923721948 1 | 923722036 1 | 923722060 1 | 923722164 1 | 923722972 1 | 923723060 1 | 923723084 1 | 923723188 1 | 923723996 1 | 923724080 1 | 923724108 1 | 923724212 1 | 923725020 1 | 923725104 1 | 923725136 1 | 923725236 1 | 923726044 1 | 923726128 1 | 923726156 1 | 923726260 1 | 923727068 1 | 923727152 1 | 923727180 1 | 923727284 1 | 923728092 1 | 923728176 1 | 923728204 1 | 923728308 1 | 923729116 1 | 923729200 1 | 923729228 1 | 923729332 1 | 923730140 1 | 923730228 1 | 923730252 1 | 923730356 1 | 923731164 1 | 923731248 1 | 923731276 1 | 923731380 1 | 923732188 1 | 923732276 1 | 923732300 1 | 923732404 1 | 923733212 1 | 923733296 1 | 923733324 1 | 923733428 1 | 923734236 1 | 923734320 1 | 923734348 1 | 923734452 1 | 923735260 1 | 923735344 1 | 923735372 1 | 923735476 1 | 923736284 1 | 923736368 1 | 923736396 1 | 923736500 1 | 923737308 1 | 923737392 1 | 923737420 1 | 923737524 1 | 923738332 1 | 923738420 1 | 923738444 1 | 923738548 1 | 923739356 1 | 923739440 1 | 923739468 1 | 923739572 1 | 923740380 1 | 923740468 1 | 923740492 1 | 923740596 1 | 923741404 1 | 923741488 1 | 923741516 1 | 923741620 1 | 923742428 1 | 923742512 1 | 923742540 1 | 923742644 1 | 923743452 1 | 923743536 1 | 923743564 1 | 923743668 1 | 923744476 1 | 923744560 1 | 923744588 1 | 923744692 1 | 923745500 1 | 923745584 1 | 923745612 1 | 923745716 1 | 923746528 1 | 923746612 1 | 923746636 1 | 923746740 1 | 923747548 1 | 923747636 1 | 923747660 1 | 923747764 1 | 923748576 1 | 923748656 1 | 923748684 1 | 923748788 1 | 923749596 1 | 923749680 1 | 923749708 1 | 923749812 1 | 923750620 1 | 923750704 1 | 923750732 1 | 923750836 1 | 923751644 1 | 923751728 1 | 923751756 1 | 923751860 1 | 923752672 1 | 923752752 1 | 923752780 1 | 923752884 1 | 923753692 1 | 923753776 1 | 923753804 1 | 923753908 1 | 923754720 1 | 923754804 1 | 923754828 1 | 923754932 1 | 923755740 1 | 923755824 1 | 923755852 1 | 923755956 1 | 923756764 1 | 923756852 1 | 923756876 1 | 923756980 1 | 923757788 1 | 923757872 1 | 923757900 1 | 923758004 1 | 923758816 1 | 923758896 1 | 923758924 1 | 923759028 1 | 923759840 1 | 923759920 1 | 923759948 1 | 923760052 1 | 923760860 1 | 923760944 1 | 923760972 1 | 923761076 1 | 923761884 1 | 923761968 1 | 923761996 1 | 923762100 1 | 923762908 1 | 923762996 1 | 923763024 1 | 923763124 1 | 923763932 1 | 923764016 1 | 923764044 1 | 923764148 1 | 923764956 1 | 923765044 1 | 923765072 1 | 923765172 1 | 923765980 1 | 923766064 1 | 923766092 1 | 923766196 1 | 923767004 1 | 923767088 1 | 923767116 1 | 923767220 1 | 923768028 1 | 923768112 1 | 923768140 1 | 923768244 1 | 923769052 1 | 923769136 1 | 923769168 1 | 923769268 1 | 923770076 1 | 923770160 1 | 923770188 1 | 923770292 1 | 923771100 1 | 923771188 1 | 923771216 1 | 923771316 1 | 923772124 1 | 923772212 1 | 923772236 1 | 923772340 1 | 923773148 1 | 923773232 1 | 923773260 1 | 923773364 1 | 923774172 1 | 923774256 1 | 923774284 1 | 923774388 1 | 923775200 1 | 923775280 1 | 923775308 1 | 923775412 1 | 923776220 1 | 923776304 1 | 923776336 1 | 923776436 1 | 923777244 1 | 923777328 1 | 923777356 1 | 923777460 1 | 923778268 1 | 923778352 1 | 923778380 1 | 923778484 1 | 923779292 1 | 923779376 1 | 923779404 1 | 923779508 1 | 923780316 1 | 923780404 1 | 923780428 1 | 923780532 1 | 923781340 1 | 923781424 1 | 923781452 1 | 923781556 1 | 923782364 1 | 923782448 1 | 923782476 1 | 923782580 1 | 923783392 1 | 923783472 1 | 923783504 1 | 923783604 1 | 923784412 1 | 923784496 1 | 923784524 1 | 923784628 1 | 923785436 1 | 923785520 1 | 923785548 1 | 923785652 1 | 923786460 1 | 923786544 1 | 923786572 1 | 923786676 1 | 923787484 1 | 923787568 1 | 923787596 1 | 923787700 1 | 923788508 1 | 923788596 1 | 923788620 1 | 923788724 1 | 923789532 1 | 923789616 1 | 923789644 1 | 923789748 1 | 923790556 1 | 923790640 1 | 923790668 1 | 923790772 1 | 923791584 1 | 923791664 1 | 923791696 1 | 923791796 1 | 923792604 1 | 923792692 1 | 923792716 1 | 923792820 1 | 923793628 1 | 923793712 1 | 923793740 1 | 923793844 1 | 923794652 1 | 923794736 1 | 923794764 1 | 923794868 1 | 923795676 1 | 923795764 1 | 923795788 1 | 923795892 1 | 923796700 1 | 923796788 1 | 923796812 1 | 923796916 1 | 923797724 1 | 923797808 1 | 923797836 1 | 923797940 1 | 923798748 1 | 923798832 1 | 923798860 1 | 923798964 1 | 923799772 1 | 923799856 1 | 923799888 1 | 923799988 1 | 923800796 1 | 923800880 1 | 923800908 1 | 923801012 1 | 923801820 1 | 923801904 1 | 923801932 1 | 923802036 1 | 923802844 1 | 923802928 1 | 923802956 1 | 923803060 1 | 923803868 1 | 923803952 1 | 923803980 1 | 923804084 1 | 923804892 1 | 923804976 1 | 923805004 1 | 923805108 1 | 923805916 1 | 923806004 1 | 923806028 1 | 923806132 1 | 923806940 1 | 923807024 1 | 923807052 1 | 923807156 1 | 923807964 1 | 923808048 1 | 923808080 1 | 923808180 1 | 923808988 1 | 923809072 1 | 923809100 1 | 923809204 1 | 923810012 1 | 923810096 1 | 923810124 1 | 923810228 1 | 923811036 1 | 923811120 1 | 923811148 1 | 923811252 1 | 923812060 1 | 923812148 1 | 923812172 1 | 923812276 1 | 923813084 1 | 923813172 1 | 923813196 1 | 923813300 1 | 923814108 1 | 923814196 1 | 923814220 1 | 923814324 1 | 923815132 1 | 923815216 1 | 923815244 1 | 923815348 1 | 923820048 1 | 923820136 1 | 923820180 1 | 923820224 1 | 923820312 1 | 923820356 1 | 923820444 1 | 923820488 1 | 923820576 1 | 923820620 1 | 923820708 1 | 923820752 1 | 923820840 1 | 923820884 1 | 923820928 1 | 923821016 1 | 923821060 1 | 923821148 1 | 923821192 1 | 923821280 1 | 923821324 1 | 923821412 1 | 923821456 1 | 923821544 1 | 923821588 1 | 923821632 1 | 923821720 1 | 923821764 1 | 923821852 1 | 923821896 1 | 923821984 1 | 923822028 1 | 923822116 1 | 923822160 1 | 923822248 1 | 923822292 1 | 923822336 1 | 923822424 1 | 923822468 1 | 923822556 1 | 923822600 1 | 923822688 1 | 923822732 1 | 923822820 1 | 923822864 1 | 923822952 1 | 923822996 1 | 923823040 1 | 923823128 1 | 923823172 1 | 923823260 1 | 923823304 1 | 923823392 1 | 923823436 1 | 923823524 1 | 923823568 1 | 923823656 1 | 923823700 1 | 923823744 1 | 923823832 1 | 923823876 1 | 923823964 1 | 923824008 1 | 923824096 1 | 923824140 1 | 923824228 1 | 923824272 1 | 923824360 1 | 923824404 1 | 923824448 1 | 923824536 1 | 923824580 1 | 923824668 1 | 923824712 1 | 923824800 1 | 923824844 1 | 923824932 1 | 923824976 1 | 923825064 1 | 923825108 1 | 923825152 1 | 923825240 1 | 923825284 1 | 923825372 1 | 923825416 1 | 923825505 1 | 923825536 1 | 923825600 1 | 923825665 1 | 923825790 1 | 923825827 1 | 923825873 1 | 923825931 1 | 923826000 1 | 923826048 1 | 923826115 1 | 923826231 1 | 923826241 1 | 923826304 1 | 923826368 1 | 923826437 1 | 923826529 1 | 923826609 1 | 923826624 1 | 923826690 1 | 923826759 1 | 923826828 1 | 923826931 1 | 923826967 1 | 923827012 1 | 923827081 1 | 923827150 1 | 923827253 1 | 923827299 1 | 923827335 1 | 923827621 1 | 923827667 1 | 923827726 1 | 923827989 1 | 923828035 1 | 923828096 1 | 923828403 1 | 923828439 1 | 923828725 1 | 923828771 1 | 923828807 1 | 923829046 1 | 923829116 1 | 923829120 1 | 923829184 1 | 923829253 1 | 923829322 1 | 923829438 1 | 923829484 1 | 923829543 1 | 923829568 1 | 923829806 1 | 923829852 1 | 923829911 1 | 923830174 1 | 923830220 1 | 923830279 1 | 923830496 1 | 923830542 1 | 923830647 1 | 923830670 1 | 923830910 1 | 923830912 1 | 923831015 1 | 923831040 1 | 923831229 1 | 923831278 1 | 923831312 1 | 923831383 1 | 923831427 1 | 923831496 1 | 923831600 1 | 923831646 1 | 923831681 1 | 923831751 1 | 923831819 1 | 923831888 1 | 923831968 1 | 923832014 1 | 923832119 1 | 923832140 1 | 923832209 1 | 923832278 1 | 923832382 1 | 923832384 1 | 923832463 1 | 923832512 1 | 923832578 1 | 923832647 1 | 923832727 1 | 923832784 1 | 923832855 1 | 923832899 1 | 923832968 1 | 923833049 1 | 923833095 1 | 923833152 1 | 923833223 1 | 923833290 1 | 923833359 1 | 923833463 1 | 923833472 1 | 923833591 1 | 923833612 1 | 923833681 1 | 923833785 1 | 923833831 1 | 923833865 1 | 923833959 1 | 923834003 1 | 923834107 1 | 923834153 1 | 923834187 1 | 923834256 1 | 923834327 1 | 923834371 1 | 923834475 1 | 923834521 1 | 923834578 1 | 923834624 1 | 923834695 1 | 923834762 1 | 923834843 1 | 923834889 1 | 923834946 1 | 923835063 1 | 923835084 1 | 923835153 1 | 923835257 1 | 923835264 1 | 923835385 1 | 923835431 1 | 923835475 1 | 923835579 1 | 923835625 1 | 923835659 1 | 923835753 1 | 923835799 1 | 923835843 1 | 923835947 1 | 923835993 1 | 923836050 1 | 923836121 1 | 923836167 1 | 923836234 1 | 923836338 1 | 923836372 1 | 923836418 1 | 923836535 1 | 923836556 1 | 923836660 1 | 923836706 1 | 923836740 1 | 923836857 1 | 923836903 1 | 923836947 1 | 923837028 1 | 923837074 1 | 923837131 1 | 923837225 1 | 923837271 1 | 923837315 1 | 923837439 1 | 923837442 1 | 923837566 1 | 923837569 1 | 923837639 1 | 923837718 1 | 923837764 1 | 923837824 1 | 923837891 1 | 923838007 1 | 923838029 1 | 923838132 1 | 923838144 1 | 923838213 1 | 923838305 1 | 923838351 1 | 923838400 1 | 923838500 1 | 923838535 1 | 923838604 1 | 923838697 1 | 923838743 1 | 923838822 1 | 923838868 1 | 923838925 1 | 923838994 1 | 923839065 1 | 923839111 1 | 923839190 1 | 923839236 1 | 923839316 1 | 923839362 1 | 923839479 1 | 923839500 1 | 923839604 1 | 923839638 1 | 923839684 1 | 923839801 1 | 923839847 1 | 923839903 1 | 923839949 1 | 923840006 1 | 923840075 1 | 923840169 1 | 923840215 1 | 923840317 1 | 923840320 1 | 923840397 1 | 923840466 1 | 923840537 1 | 923840583 1 | 923840685 1 | 923840719 1 | 923840788 1 | 923840834 1 | 923840951 1 | 923841007 1 | 923841053 1 | 923841110 1 | 923841156 1 | 923841273 1 | 923841319 1 | 923841375 1 | 923841409 1 | 923841478 1 | 923841547 1 | 923841641 1 | 923841687 1 | 923841743 1 | 923841800 1 | 923841869 1 | 923841938 1 | 923842009 1 | 923842111 1 | 923842112 1 | 923842191 1 | 923842260 1 | 923842306 1 | 923842423 1 | 923842479 1 | 923842513 1 | 923842582 1 | 923842628 1 | 923842745 1 | 923842791 1 | 923842847 1 | 923842881 1 | 923842950 1 | 923843019 1 | 923843088 1 | 923843157 1 | 923843215 1 | 923843272 1 | 923843341 1 | 923843410 1 | 923843456 1 | 923843560 1 | 923843594 1 | 923843663 1 | 923843732 1 | 923843778 1 | 923843847 1 | 923843928 1 | 923843985 1 | 923844054 1 | 923844100 1 | 923844193 1 | 923844239 1 | 923844296 1 | 923844354 1 | 923844423 1 | 923844492 1 | 923844560 1 | 923844664 1 | 923844672 1 | 923844744 1 | 923844813 1 | 923844882 1 | 923844986 1 | 923844992 1 | 923845066 1 | 923845135 1 | 923845204 1 | 923845250 1 | 923845354 1 | 923845388 1 | 923845457 1 | 923845526 1 | 923845572 1 | 923845641 1 | 923845722 1 | 923845802 1 | 923845871 1 | 923845940 1 | 923846009 1 | 923846032 1 | 923846090 1 | 923846147 1 | 923846216 1 | 923846285 1 | 923846354 1 | 923846458 1 | 923846464 1 | 923846538 1 | 923846607 1 | 923846676 1 | 923846722 1 | 923846826 1 | 923846860 1 | 923846929 1 | 923846998 1 | 923847044 1 | 923847113 1 | 923847171 1 | 923847251 1 | 923847297 1 | 923847366 1 | 923847435 1 | 923847539 1 | 923847575 1 | 923847619 1 | 923847688 1 | 923847757 1 | 923847826 1 | 923847907 1 | 923847943 1 | 923848010 1 | 923848079 1 | 923848148 1 | 923848194 1 | 923848275 1 | 923848332 1 | 923848401 1 | 923848470 1 | 923848516 1 | 923848597 1 | 923848679 1 | 923848723 1 | 923848769 1 | 923848838 1 | 923848907 1 | 923848965 1 | 923849047 1 | 923849091 1 | 923849160 1 | 923849229 1 | 923849333 1 | 923849345 1 | 923849415 1 | 923849483 1 | 923849552 1 | 923849655 1 | 923849701 1 | 923849783 1 | 923849805 1 | 923849856 1 | 923849920 1 | 923850023 1 | 923850069 1 | 923850127 1 | 923850176 1 | 923850242 1 | 923850311 1 | 923850380 1 | 923850437 1 | 923850519 1 | 923850564 1 | 923850633 1 | 923850736 1 | 923850782 1 | 923850841 1 | 923850887 1 | 923850954 1 | 923851023 1 | 923851104 1 | 923851150 1 | 923851255 1 | 923851276 1 | 923851345 1 | 923851414 1 | 923851518 1 | 923851520 1 | 923851623 1 | 923851667 1 | 923851713 1 | 923851837 1 | 923851886 1 | 923851945 1 | 923851991 1 | 923852035 1 | 923852159 1 | 923852208 1 | 923852231 1 | 923852313 1 | 923852359 1 | 923852426 1 | 923852530 1 | 923852576 1 | 923852608 1 | 923852727 1 | 923852750 1 | 923852817 1 | 923852898 1 | 923852944 1 | 923853049 1 | 923853095 1 | 923853120 1 | 923853185 1 | 923853309 1 | 923853312 1 | 923853417 1 | 923853463 1 | 923853507 1 | 923853631 1 | 923853680 1 | 923853703 1 | 923853785 1 | 923853831 1 | 923853944 1 | 923854002 1 | 923854048 1 | 923854080 1 | 923854199 1 | 923854222 1 | 923854320 1 | 923854393 1 | 923854400 1 | 923854521 1 | 923854567 1 | 923854596 1 | 923854715 1 | 923854761 1 | 923854803 1 | 923854889 1 | 923854935 1 | 923854987 1 | 923855083 1 | 923855129 1 | 923855171 1 | 923855233 1 | 923855303 1 | 923855371 1 | 923855451 1 | 923855497 1 | 923855555 1 | 923855671 1 | 923855700 1 | 923855773 1 | 923855819 1 | 923855884 1 | 923855969 1 | 923856015 1 | 923856064 1 | 923856187 1 | 923856192 1 | 923856268 1 | 923856361 1 | 923856407 1 | 923856509 1 | 923856555 1 | 923856597 1 | 923856643 1 | 923856729 1 | 923856775 1 | 923856877 1 | 923856923 1 | 923856965 1 | 923857034 1 | 923857143 1 | 923857172 1 | 923857245 1 | 923857291 1 | 923857356 1 | 923857465 1 | 923857511 1 | 923857540 1 | 923857659 1 | 923857664 1 | 923857747 1 | 923857833 1 | 923857879 1 | 923857958 1 | 923858004 1 | 923858069 1 | 923858115 1 | 923858201 1 | 923858247 1 | 923858326 1 | 923858372 1 | 923858437 1 | 923858506 1 | 923858615 1 | 923858644 1 | 923858740 1 | 923858759 1 | 923858828 1 | 923858937 1 | 923858983 1 | 923859062 1 | 923859108 1 | 923859150 1 | 923859219 1 | 923859305 1 | 923859351 1 | 923859430 1 | 923859472 1 | 923859541 1 | 923859587 1 | 923859673 1 | 923859719 1 | 923859798 1 | 923859840 1 | 923859909 1 | 923859978 1 | 923860087 1 | 923860120 1 | 923860166 1 | 923860231 1 | 923860300 1 | 923860409 1 | 923860455 1 | 923860534 1 | 923860544 1 | 923860622 1 | 923860691 1 | 923860777 1 | 923860823 1 | 923860902 1 | 923860944 1 | 923861013 1 | 923861118 1 | 923861121 1 | 923861191 1 | 923861270 1 | 923861328 1 | 923861376 1 | 923861443 1 | 923861559 1 | 923861615 1 | 923861634 1 | 923861703 1 | 923861772 1 | 923861857 1 | 923861903 1 | 923861983 1 | 923862018 1 | 923862087 1 | 923862156 1 | 923862209 1 | 923862295 1 | 923862351 1 | 923862416 1 | 923862485 1 | 923862531 1 | 923862600 1 | 923862719 1 | 923862720 1 | 923862784 1 | 923862853 1 | 923862922 1 | 923863031 1 | 923863041 1 | 923863106 1 | 923863175 1 | 923863244 1 | 923863313 1 | 923863409 1 | 923863428 1 | 923863497 1 | 923863566 1 | 923863635 1 | 923863681 1 | 923863777 1 | 923863819 1 | 923863888 1 | 923863957 1 | 923864003 1 | 923864072 1 | 923864145 1 | 923864210 1 | 923864256 1 | 923864325 1 | 923864394 1 | 923864503 1 | 923864513 1 | 923864578 1 | 923864647 1 | 923864716 1 | 923864785 1 | 923864881 1 | 923864900 1 | 923864969 1 | 923865038 1 | 923865107 1 | 923865180 1 | 923865226 1 | 923865280 1 | 923865344 1 | 923865409 1 | 923865478 1 | 923865594 1 | 923865600 1 | 923865682 1 | 923865728 1 | 923865797 1 | 923865916 1 | 923865962 1 | 923865985 1 | 923866050 1 | 923866119 1 | 923866188 1 | 923866284 1 | 923866330 1 | 923866368 1 | 923866441 1 | 923866510 1 | 923866606 1 | 923866652 1 | 923866711 1 | 923866763 1 | 923866832 1 | 923866901 1 | 923866974 1 | 923867020 1 | 923867079 1 | 923867147 1 | 923867216 1 | 923867264 1 | 923867388 1 | 923867392 1 | 923867469 1 | 923867520 1 | 923867584 1 | 923867710 1 | 923867756 1 | 923867791 1 | 923867840 1 | 923867906 1 | 923867975 1 | 923868044 1 | 923868124 1 | 923868183 1 | 923868228 1 | 923868297 1 | 923868366 1 | 923868446 1 | 923868492 1 | 923868551 1 | 923868626 1 | 923868672 1 | 923868791 1 | 923868837 1 | 923868919 1 | 923868928 1 | 923868997 1 | 923869066 1 | 923869159 1 | 923869205 1 | 923869287 1 | 923869312 1 | 923869527 1 | 923869573 1 | 923869655 1 | 923869941 1 | 923869952 1 | 923870023 1 | 923870263 1 | 923870272 1 | 923870391 1 | 923870414 1 | 923870585 1 | 923870631 1 | 923870713 1 | 923870759 1 | 923870784 1 | 923870953 1 | 923870999 1 | 923871081 1 | 923871127 1 | 923871321 1 | 923871367 1 | 923871449 1 | 923871495 1 | 923871735 1 | 923871744 1 | 923871863 1 | 923871886 1 | 923872057 1 | 923872103 1 | 923872185 1 | 923872231 1 | 923872256 1 | 923872378 1 | 923872445 1 | 923872448 1 | 923872553 1 | 923872599 1 | 923872640 1 | 923872767 1 | 923872816 1 | 923872894 1 | 923872897 1 | 923872967 1 | 923873035 1 | 923873138 1 | 923873184 1 | 923873219 1 | 923873335 1 | 923873357 1 | 923873408 1 | 923873506 1 | 923873552 1 | 923873633 1 | 923873679 1 | 923873728 1 | 923873794 1 | 923873874 1 | 923873932 1 | 923874025 1 | 923874071 1 | 923874116 1 | 923874239 1 | 923874242 1 | 923874304 1 | 923874393 1 | 923874439 1 | 923874610 1 | 923874633 1 | 923874807 1 | 923874830 1 | 923874932 1 | 923874978 1 | 923875008 1 | 923875129 1 | 923875175 1 | 923875200 1 | 923875300 1 | 923875346 1 | 923875497 1 | 923875543 1 | 923875711 1 | 923875714 1 | 923875865 1 | 923875911 1 | 923876013 1 | 923876059 1 | 923876104 1 | 923876160 1 | 923876279 1 | 923876302 1 | 923876381 1 | 923876427 1 | 923876601 1 | 923876647 1 | 923876672 1 | 923876795 1 | 923876800 1 | 923876969 1 | 923877015 1 | 923877117 1 | 923877163 1 | 923877186 1 | 923877337 1 | 923877383 1 | 923877485 1 | 923877508 1 | 923877751 1 | 923877807 1 | 923877853 1 | 923878073 1 | 923878119 1 | 923878175 1 | 923878221 1 | 923878441 1 | 923878487 1 | 923878589 1 | 923878592 1 | 923878782 1 | 923878785 1 | 923878855 1 | 923878957 1 | 923878992 1 | 923879040 1 | 923879107 1 | 923879223 1 | 923879279 1 | 923879325 1 | 923879360 1 | 923879429 1 | 923879521 1 | 923879567 1 | 923879670 1 | 923879680 1 | 923879751 1 | 923879820 1 | 923879913 1 | 923879959 1 | 923880038 1 | 923880064 1 | 923880142 1 | 923880192 1 | 923880281 1 | 923880327 1 | 923880406 1 | 923880695 1 | 923880728 1 | 923880774 1 | 923881017 1 | 923881063 1 | 923881096 1 | 923881385 1 | 923881464 1 | 923881472 1 | 923881786 1 | 923881832 1 | 923881856 1 | 923882167 1 | 923882200 1 | 923882489 1 | 923882535 1 | 923882568 1 | 923882857 1 | 923882936 1 | 923882944 1 | 923883235 1 | 923883281 1 | 923883328 1 | 923883395 1 | 923883464 1 | 923883520 1 | 923883639 1 | 923883649 1 | 923883961 1 | 923884017 1 | 923884040 1 | 923884339 1 | 923884385 1 | 923884416 1 | 923884661 1 | 923884707 1 | 923884743 1 | 923884811 1 | 923884880 1 | 923884928 1 | 923885029 1 | 923885075 1 | 923885133 1 | 923885184 1 | 923885248 1 | 923885317 1 | 923885409 1 | 923885443 1 | 923885504 1 | 923885570 1 | 923885639 1 | 923885708 1 | 923885811 1 | 923885847 1 | 923885892 1 | 923885961 1 | 923886030 1 | 923886133 1 | 923886179 1 | 923886215 1 | 923886501 1 | 923886547 1 | 923886606 1 | 923886846 1 | 923886892 1 | 923886951 1 | 923886983 1 | 923887052 1 | 923887104 1 | 923887214 1 | 923887260 1 | 923887319 1 | 923887582 1 | 923887628 1 | 923887687 1 | 923887710 1 | 923887996 1 | 923888000 1 | 923888078 1 | 923888318 1 | 923888320 1 | 923888423 1 | 923888448 1 | 923888637 1 | 923888686 1 | 923888745 1 | 923888791 1 | 923889008 1 | 923889031 1 | 923889054 1 | 923889113 1 | 923889159 1 | 923889182 1 | 923889376 1 | 923889422 1 | 923889527 1 | 923889550 1 | 923889790 1 | 923889792 1 | 923889895 1 | 923889920 1 | 923890109 1 | 923890158 1 | 923890217 1 | 923890263 1 | 923890430 1 | 923890457 1 | 923890503 1 | 923890561 1 | 923890631 1 | 923890699 1 | 923890768 1 | 923890871 1 | 923890880 1 | 923890999 1 | 923891021 1 | 923891072 1 | 923891193 1 | 923891239 1 | 923891297 1 | 923891343 1 | 923891392 2 | 923891458 1 | 923891527 1 | 923891607 1 | 923891689 1 | 923891735 1 | 923891780 1 | 923891883 1 | 923891929 1 | 923891968 1 | 923892057 1 | 923892103 1 | 923892251 1 | 923892297 1 | 923892471 1 | 923892494 1 | 923892665 1 | 923892672 1 | 923892793 1 | 923892839 1 | 923892864 1 | 923892987 1 | 923893033 1 | 923893056 1 | 923893161 1 | 923893207 1 | 923893355 1 | 923893401 1 | 923893529 1 | 923893575 1 | 923893598 1 | 923893723 1 | 923893769 1 | 923893943 1 | 923893966 1 | 923894068 1 | 923894114 1 | 923894144 1 | 923894265 1 | 923894311 1 | 923894336 1 | 923894436 1 | 923894482 1 | 923894633 1 | 923894679 1 | 923894847 1 | 923894850 1 | 923895001 1 | 923895047 1 | 923895218 1 | 923895241 1 | 923895415 1 | 923895438 1 | 923895540 1 | 923895563 1 | 923895737 1 | 923895783 1 | 923895862 1 | 923895908 1 | 923895936 1 | 923896105 1 | 923896151 1 | 923896230 1 | 923896276 1 | 923896446 1 | 923896449 1 | 923896519 1 | 923896598 1 | 923896644 1 | 923896704 1 | 923896771 1 | 923896887 1 | 923896909 1 | 923897012 1 | 923897024 1 | 923897093 1 | 923897185 1 | 923897231 1 | 923897280 1 | 923897380 1 | 923897415 1 | 923897484 1 | 923897577 1 | 923897623 1 | 923897725 1 | 923897728 1 | 923897793 1 | 923897862 1 | 923897945 1 | 923897991 1 | 923898093 1 | 923898116 1 | 923898359 1 | 923898415 1 | 923898461 1 | 923898681 1 | 923898727 1 | 923898783 1 | 923898829 1 | 923899049 1 | 923899095 1 | 923899151 1 | 923899417 1 | 923899519 1 | 923899520 1 | 923899831 1 | 923899887 1 | 923899910 1 | 923900153 1 | 923900199 1 | 923900255 1 | 923900288 1 | 923900521 1 | 923900567 1 | 923900623 1 | 923900889 1 | 923900991 1 | 923900992 1 | 923901303 1 | 923901336 1 | 923901381 1 | 923901450 1 | 923901504 1 | 923901625 1 | 923901671 1 | 923901704 1 | 923901993 1 | 923902072 1 | 923902080 1 | 923902334 1 | 923902394 1 | 923902440 1 | 923902475 1 | 923902544 1 | 923902592 1 | 923902716 1 | 923902762 1 | 923902797 1 | 923902848 1 | 923902912 1 | 923902981 1 | 923903073 1 | 923903130 1 | 923903168 2 | 923903234 1 | 923903303 1 | 923903372 1 | 923903452 1 | 923903498 1 | 923903556 1 | 923903625 1 | 923903694 1 | 923903744 1 | 923903866 1 | 923903872 1 | 923904188 1 | 923904234 1 | 923904257 1 | 923904556 1 | 923904602 1 | 923904640 1 | 923904877 1 | 923904947 1 | 923904983 1 | 923905024 1 | 923905088 1 | 923905153 1 | 923905269 1 | 923905315 1 | 923905351 1 | 923905637 1 | 923905683 1 | 923905742 1 | 923906005 1 | 923906051 1 | 923906112 1 | 923906327 1 | 923906373 1 | 923906455 1 | 923906741 1 | 923906777 1 | 923906823 1 | 923907063 1 | 923907109 1 | 923907191 1 | 923907214 1 | 923907431 1 | 923907477 1 | 923907559 1 | 923907584 1 | 923907799 1 | 923907845 1 | 923907927 1 | 923908213 1 | 923908224 1 | 923908295 1 | 923908363 1 | 923908432 1 | 923908512 1 | 923908558 1 | 923908663 1 | 923908685 1 | 923908736 1 | 923908800 1 | 923908926 1 | 923908928 1 | 923909007 1 | 923909056 1 | 923909122 1 | 923909191 1 | 923909294 1 | 923909353 1 | 923909399 1 | 923909444 1 | 923909513 1 | 923909616 1 | 923909662 1 | 923909721 1 | 923909767 1 | 923909938 1 | 923909984 1 | 923910016 1 | 923910135 1 | 923910158 1 | 923910306 1 | 923910352 1 | 923910457 1 | 923910503 1 | 923910528 1 | 923910717 1 | 923910720 1 | 923910825 1 | 923910871 1 | 923911039 1 | 923911088 1 | 923911111 1 | 923911193 1 | 923911239 1 | 923911410 1 | 923911456 1 | 923911488 1 | 923911607 1 | 923911630 1 | 923911778 1 | 923911824 1 | 923911929 1 | 923911975 1 | 923912000 1 | 923912123 1 | 923912169 1 | 923912211 1 | 923912297 1 | 923912343 1 | 923912395 1 | 923912491 1 | 923912537 1 | 923912579 1 | 923912665 1 | 923912711 1 | 923912786 1 | 923912859 1 | 923912905 1 | 923912970 1 | 923913079 1 | 923913108 1 | 923913154 1 | 923913273 1 | 923913280 1 | 923913402 1 | 923913448 1 | 923913477 1 | 923913596 1 | 923913600 1 | 923913684 1 | 923913770 1 | 923913816 1 | 923913918 1 | 923913964 1 | 923914006 1 | 923914052 1 | 923914114 1 | 923914184 1 | 923914286 1 | 923914332 1 | 923914368 1 | 923914436 1 | 923914552 1 | 923914581 1 | 923914654 1 | 923914700 1 | 923914765 1 | 923914850 1 | 923914896 1 | 923914944 1 | 923915068 1 | 923915072 1 | 923915149 1 | 923915200 1 | 923915288 1 | 923915390 1 | 923915436 1 | 923915478 1 | 923915524 1 | 923915610 1 | 923915656 1 | 923915735 1 | 923915781 1 | 923915846 1 | 923915915 1 | 923916024 1 | 923916053 1 | 923916149 1 | 923916168 1 | 923916237 1 | 923916346 1 | 923916392 1 | 923916471 1 | 923916517 1 | 923916559 1 | 923916628 1 | 923916714 1 | 923916760 1 | 923916839 1 | 923916885 1 | 923916950 1 | 923916996 1 | 923917082 1 | 923917128 1 | 923917207 1 | 923917249 1 | 923917318 1 | 923917387 1 | 923917496 1 | 923917529 1 | 923917575 1 | 923917640 1 | 923917709 1 | 923917818 1 | 923917864 1 | 923917943 1 | 923917952 1 | 923918031 1 | 923918100 1 | 923918186 1 | 923918232 1 | 923918311 1 | 923918353 1 | 923918422 1 | 923918468 1 | 923918554 1 | 923918600 1 | 923918679 1 | 923918721 1 | 923918790 1 | 923918859 1 | 923918968 1 | 923919001 1 | 923919047 1 | 923919112 1 | 923919181 1 | 923919290 1 | 923919336 1 | 923919392 1 | 923919434 1 | 923919503 1 | 923919572 1 | 923919618 1 | 923919704 1 | 923919760 1 | 923919825 1 | 923919894 1 | 923919940 1 | 923920009 1 | 923920072 1 | 923920128 1 | 923920193 1 | 923920262 1 | 923920331 1 | 923920440 1 | 923920496 1 | 923920515 1 | 923920584 1 | 923920653 1 | 923920738 1 | 923920818 1 | 923920832 1 | 923920899 1 | 923920968 1 | 923921037 1 | 923921088 1 | 923921186 1 | 923921228 1 | 923921297 1 | 923921366 1 | 923921412 1 | 923921481 1 | 923921554 1 | 923921619 1 | 923921665 1 | 923921734 1 | 923921803 1 | 923921912 1 | 923921922 1 | 923921987 1 | 923922056 1 | 923922125 1 | 923922194 1 | 923922290 1 | 923922309 1 | 923922378 1 | 923922447 1 | 923922516 1 | 923922562 1 | 923922658 1 | 923922700 1 | 923922769 1 | 923922838 1 | 923922884 1 | 923923003 1 | 923923008 1 | 923923072 1 | 923923140 1 | 923923209 1 | 923923325 1 | 923923371 1 | 923923394 1 | 923923459 1 | 923923528 1 | 923923597 1 | 923923693 1 | 923923739 1 | 923923776 1 | 923923850 1 | 923923919 1 | 923923988 1 | 923924061 1 | 923924107 1 | 923924172 1 | 923924241 1 | 923924310 1 | 923924383 1 | 923924429 1 | 923924488 1 | 923924563 1 | 923924609 1 | 923924678 1 | 923924797 1 | 923924800 1 | 923924879 1 | 923924931 1 | 923925000 1 | 923925119 1 | 923925165 1 | 923925224 1 | 923925248 1 | 923925322 1 | 923925391 1 | 923925487 1 | 923925533 1 | 923925592 1 | 923925636 1 | 923925705 1 | 923925774 1 | 923925855 1 | 923925901 1 | 923925960 1 | 923926028 1 | 923926097 1 | 923926144 1 | 923926269 1 | 923926272 1 | 923926349 1 | 923926418 1 | 923926464 1 | 923926568 1 | 923926614 1 | 923926672 1 | 923926720 1 | 923926787 1 | 923926856 1 | 923926925 1 | 923926982 1 | 923927064 1 | 923927108 1 | 923927177 1 | 923927246 1 | 923927350 1 | 923927360 1 | 923927432 1 | 923927499 1 | 923927568 1 | 923927672 1 | 923927718 1 | 923927800 1 | 923927821 1 | 923927890 1 | 923927994 1 | 923928040 1 | 923928074 1 | 923928168 1 | 923928212 1 | 923928258 1 | 923928362 1 | 923928408 1 | 923928465 1 | 923928536 1 | 923928580 1 | 923928649 1 | 923928730 1 | 923928776 1 | 923928833 1 | 923928904 1 | 923928971 1 | 923929040 1 | 923929144 1 | 923929152 1 | 923929272 1 | 923929293 1 | 923929362 1 | 923929466 1 | 923929512 1 | 923929594 1 | 923929640 1 | 923929684 1 | 923929730 1 | 923929834 1 | 923929880 1 | 923929962 1 | 923930008 1 | 923930052 1 | 923930121 1 | 923930225 1 | 923930259 1 | 923930330 1 | 923930376 1 | 923930443 1 | 923930547 1 | 923930593 1 | 923930627 1 | 923930744 1 | 923930765 1 | 923930834 1 | 923930915 1 | 923930961 1 | 923931066 1 | 923931112 1 | 923931156 1 | 923931202 1 | 923931326 1 | 923931329 1 | 923931434 1 | 923931480 1 | 923931524 1 | 923931605 1 | 923931651 1 | 923931775 1 | 923931778 1 | 923931848 1 | 923931916 1 | 923932019 1 | 923932032 1 | 923932100 1 | 923932216 1 | 923932238 1 | 923932341 1 | 923932387 1 | 923932422 1 | 923932514 1 | 923932560 1 | 923932608 1 | 923932675 1 | 923932755 1 | 923932813 1 | 923932864 1 | 923932952 1 | 923932996 1 | 923933077 1 | 923933123 1 | 923933203 1 | 923933274 1 | 923933320 1 | 923933387 1 | 923933491 1 | 923933525 1 | 923933571 1 | 923933688 1 | 923933709 1 | 923933790 1 | 923933836 1 | 923933893 1 | 923934010 1 | 923934056 1 | 923934100 1 | 923934204 1 | 923934208 1 | 923934284 1 | 923934378 1 | 923934424 1 | 923934526 1 | 923934572 1 | 923934606 1 | 923934675 1 | 923934746 1 | 923934792 1 | 923934894 1 | 923934940 1 | 923934997 1 | 923935043 1 | 923935160 1 | 923935216 1 | 923935262 1 | 923935296 1 | 923935365 1 | 923935482 1 | 923935528 1 | 923935584 1 | 923935630 1 | 923935687 1 | 923935756 1 | 923935850 1 | 923935896 1 | 923935998 1 | 923936000 1 | 923936078 1 | 923936147 1 | 923936218 1 | 923936264 1 | 923936366 1 | 923936400 1 | 923936469 1 | 923936515 1 | 923936632 1 | 923936688 1 | 923936734 1 | 923936768 1 | 923936837 1 | 923936954 1 | 923937000 1 | 923937056 1 | 923937102 1 | 923937159 1 | 923937228 1 | 923937297 1 | 923937366 1 | 923937447 1 | 923937481 1 | 923937550 1 | 923937619 1 | 923937665 1 | 923937734 1 | 923937815 1 | 923937872 1 | 923937941 1 | 923937987 1 | 923938056 1 | 923938125 1 | 923938183 1 | 923938240 1 | 923938355 1 | 923938402 1 | 923938448 1 | 923938551 1 | 923938560 1 | 923938632 1 | 923938701 1 | 923938769 1 | 923938873 1 | 923938880 1 | 923938953 1 | 923939022 1 | 923939091 1 | 923939137 1 | 923939241 1 | 923939275 1 | 923939344 1 | 923939413 1 | 923939459 1 | 923939528 1 | 923939609 1 | 923939666 1 | 923939712 1 | 923939781 1 | 923939850 1 | 923939965 1 | 923939977 1 | 923940080 1 | 923940149 1 | 923940218 1 | 923940224 1 | 923940345 1 | 923940352 1 | 923940425 1 | 923940494 1 | 923940563 1 | 923940609 1 | 923940713 1 | 923940747 1 | 923940816 1 | 923940885 1 | 923940931 1 | 923941048 1 | 923941058 1 | 923941138 1 | 923941184 1 | 923941253 1 | 923941322 1 | 923941426 1 | 923941460 1 | 923941506 1 | 923941575 1 | 923941644 1 | 923941696 1 | 923941794 1 | 923941828 1 | 923941897 1 | 923941966 1 | 923942035 1 | 923942081 1 | 923942162 1 | 923942219 1 | 923942288 1 | 923942357 1 | 923942403 1 | 923942484 1 | 923942541 1 | 923942610 1 | 923942656 1 | 923942725 1 | 923942794 1 | 923942852 1 | 923942955 1 | 923943024 1 | 923943093 1 | 923943162 1 | 923943220 1 | 923943256 1 | 923943300 1 | 923943369 1 | 923943438 1 | 923943542 1 | 923943588 1 | 923943624 1 | 923943692 1 | 923943761 1 | 923943808 1 | 923943910 1 | 923943956 1 | 923944014 1 | 923944064 1 | 923944129 1 | 923944198 1 | 923944290 1 | 923944324 1 | 923944384 1 | 923944451 1 | 923944520 1 | 923944589 1 | 923944669 1 | 923944728 1 | 923944773 1 | 923944842 1 | 923944911 1 | 923944991 1 | 923945037 1 | 923945096 1 | 923945163 1 | 923945255 1 | 923945301 1 | 923945405 1 | 923945408 1 | 923945531 1 | 923945577 1 | 923945646 1 | 923945727 1 | 923945773 1 | 923945832 1 | 923945899 1 | 923945968 1 | 923946046 1 | 923946095 1 | 923946154 1 | 923946200 1 | 923946244 1 | 923946313 1 | 923946417 1 | 923946463 1 | 923946522 1 | 923946568 1 | 923946635 1 | 923946704 1 | 923946785 1 | 923946831 1 | 923946936 1 | 923946959 1 | 923947026 1 | 923947072 1 | 923947199 1 | 923947200 1 | 923947304 1 | 923947328 1 | 923947394 1 | 923947518 1 | 923947567 1 | 923947626 1 | 923947672 1 | 923947716 1 | 923947785 1 | 923947889 1 | 923947935 1 | 923947994 1 | 923948040 1 | 923948153 1 | 923948210 1 | 923948280 1 | 923948288 1 | 923948408 1 | 923948417 1 | 923948486 1 | 923948602 1 | 923948648 1 | 923948730 1 | 923948776 1 | 923948800 1 | 923948866 1 | 923948970 1 | 923949016 1 | 923949098 1 | 923949144 1 | 923949338 1 | 923949384 1 | 923949442 1 | 923949512 1 | 923949580 1 | 923949660 1 | 923949706 1 | 923949764 1 | 923949880 1 | 923949902 1 | 923949952 1 | 923950074 1 | 923950080 1 | 923950178 1 | 923950224 1 | 923950272 1 | 923950339 1 | 923950442 1 | 923950477 1 | 923950528 1 | 923950616 1 | 923950661 1 | 923950764 1 | 923950810 1 | 923950848 1 | 923950938 1 | 923950984 1 | 923951132 1 | 923951178 1 | 923951352 1 | 923951375 1 | 923951546 1 | 923951552 1 | 923951674 1 | 923951720 1 | 923951744 1 | 923951845 1 | 923951891 1 | 923951936 1 | 923952042 1 | 923952088 1 | 923952128 1 | 923952213 1 | 923952259 1 | 923952410 1 | 923952456 1 | 923952627 1 | 923952650 1 | 923952824 1 | 923952847 1 | 923952949 1 | 923952995 1 | 923953024 1 | 923953146 1 | 923953192 1 | 923953271 1 | 923953317 1 | 923953344 1 | 923953514 1 | 923953560 1 | 923953639 1 | 923953685 1 | 923953882 1 | 923953928 1 | 923954007 1 | 923954053 1 | 923954296 1 | 923954319 1 | 923954421 1 | 923954444 1 | 923954618 1 | 923954664 1 | 923954743 1 | 923954789 1 | 923954816 1 | 923954986 1 | 923955032 1 | 923955111 1 | 923955157 1 | 923955327 1 | 923955330 1 | 923955400 1 | 923955502 1 | 923955537 1 | 923955584 1 | 923955652 1 | 923955768 1 | 923955824 1 | 923955870 1 | 923955905 1 | 923955974 1 | 923956066 1 | 923956112 1 | 923956160 1 | 923956238 1 | 923956296 1 | 923956365 1 | 923956416 1 | 923956504 1 | 923956606 1 | 923956608 1 | 923956687 1 | 923956736 1 | 923956826 1 | 923956872 1 | 923956928 1 | 923957240 1 | 923957296 1 | 923957319 1 | 923957562 1 | 923957608 1 | 923957664 1 | 923957696 1 | 923957930 1 | 923957976 1 | 923958032 1 | 923958298 1 | 923958344 1 | 923958400 1 | 923958712 1 | 923958768 1 | 923958791 1 | 923959034 1 | 923959090 1 | 923959113 1 | 923959412 1 | 923959458 1 | 923959488 1 | 923959780 1 | 923959826 1 | 923960184 1 | 923960194 1 | 923960506 1 | 923960562 1 | 923960585 1 | 923960884 1 | 923960930 1 | 923960960 1 | 923961215 1 | 923961275 1 | 923961280 1 | 923961356 1 | 923961409 1 | 923961472 1 | 923961597 1 | 923961643 1 | 923961678 1 | 923961728 1 | 923961793 1 | 923961862 1 | 923961954 1 | 923962011 1 | 923962048 1 | 923962115 1 | 923962184 1 | 923962253 1 | 923962304 1 | 923962379 1 | 923962437 1 | 923962506 1 | 923962575 1 | 923962655 1 | 923962701 1 | 923962760 1 | 923963069 1 | 923963072 1 | 923963136 1 | 923963391 1 | 923963437 1 | 923963496 1 | 923963520 1 | 923963759 1 | 923963805 1 | 923963864 1 | 923964127 1 | 923964173 1 | 923964232 1 | 923964541 1 | 923964544 1 | 923964608 1 | 923964840 1 | 923964886 1 | 923964968 1 | 923965000 1 | 923965056 1 | 923965120 1 | 923965208 1 | 923965254 1 | 923965336 1 | 923965622 1 | 923965632 1 | 923965704 1 | 923965944 1 | 923965990 1 | 923966072 1 | 923966095 1 | 923966266 1 | 923966312 1 | 923966394 1 | 923966440 1 | 923966464 1 | 923966634 1 | 923966680 1 | 923966762 1 | 923966808 1 | 923967002 1 | 923967048 1 | 923967106 1 | 923967176 1 | 923967244 1 | 923967296 1 | 923967416 1 | 923967424 1 | 923967544 1 | 923967552 1 | 923967616 1 | 923967738 1 | 923967784 1 | 923967842 1 | 923967872 1 | 923967936 1 | 923968003 1 | 923968072 1 | 923968152 1 | 923968192 1 | 923968280 1 | 923968325 1 | 923968447 1 | 923968477 1 | 923968532 1 | 923968587 1 | 923968642 1 | 923968752 1 | 923968807 1 | 923968862 1 | 923968917 1 | 923968972 1 | 923969027 1 | 923969137 1 | 923969192 1 | 923969247 1 | 923969302 1 | 923969357 1 | 923969412 1 | 923969522 1 | 923969577 1 | 923969632 1 | 923969687 1 | 923969742 1 | 923969797 1 | 923969907 1 | 923969962 1 | 923970017 1 | 923970072 1 | 923970127 1 | 923970182 1 | 923970292 1 | 923970347 1 | 923970402 1 | 923970457 1 | 923970512 1 | 923970567 1 | 923970677 1 | 923970732 1 | 923970787 1 | 923970842 1 | 923970897 1 | 923970952 1 | 923971062 1 | 923971117 1 | 923971172 1 | 923971227 1 | 923971282 1 | 923971337 1 | 923971392 1 | 923971502 1 | 923971557 1 | 923971612 1 | 923971667 1 | 923971722 1 | 923971777 1 | 923971887 1 | 923971942 1 | 923971997 1 | 923972052 1 | 923972107 1 | 923972162 1 | 923972272 1 | 923972327 1 | 923972382 1 | 923972437 1 | 923972492 1 | 923972547 1 | 923972657 1 | 923972712 1 | 923972767 1 | 923972822 1 | 923972877 1 | 923972932 1 | 923973042 1 | 923973097 1 | 923973152 1 | 923973207 1 | 923973262 1 | 923973317 1 | 923973427 1 | 923973482 1 | 923973537 1 | 923973592 1 | 923973647 1 | 923973702 1 | 923973812 1 | 923973867 1 | 923973922 1 | 923973977 1 | 923974032 1 | 923974087 1 | 923974197 1 | 923974252 1 | 923974307 1 | 923974362 1 | 923974417 1 | 923974472 1 | 923974582 1 | 923974637 1 | 923974692 1 | 923974747 1 | 923974802 1 | 923974857 1 | 923974912 1 | 923975022 1 | 923975077 1 | 923975132 1 | 923975187 1 | 923975242 1 | 923975297 1 | 923975407 1 | 923975462 1 | 923975517 1 | 923975572 1 | 923975627 1 | 923975682 1 | 923975792 1 | 923975847 1 | 923975902 1 | 923975957 1 | 923976012 1 | 923976067 1 | 923976177 1 | 923976232 1 | 923976287 1 | 923976342 1 | 923976397 1 | 923976452 1 | 923976562 1 | 923976617 1 | 923976672 1 | 923976727 1 | 923976782 1 | 923976837 1 | 923976947 1 | 923977002 1 | 923977057 1 | 923977112 1 | 923977167 1 | 923977222 1 | 923977332 1 | 923977387 1 | 923977442 1 | 923977497 1 | 923977552 1 | 923977607 1 | 923977717 1 | 923977772 1 | 923977827 1 | 923977882 1 | 923977937 1 | 923977992 1 | 923978102 1 | 923978157 1 | 923978212 1 | 923978267 1 | 923978322 1 | 923978377 1 | 923978432 1 | 923978542 1 | 923978597 1 | 923978652 1 | 923978707 1 | 923978762 1 | 923978817 1 | 923978927 1 | 923978982 1 | 923979037 1 | 923979092 1 | 923979147 1 | 923979202 1 | 923979312 1 | 923979367 1 | 923979422 1 | 923979477 1 | 923979532 1 | 923979587 1 | 923979697 1 | 923979752 1 | 923979807 1 | 923979862 1 | 923979917 1 | 923979972 1 | 923980082 1 | 923980137 1 | 923980192 1 | 923980247 1 | 923980302 1 | 923980357 1 | 923980467 1 | 923980522 1 | 923980577 1 | 923980632 1 | 923980687 1 | 923980742 1 | 923980852 1 | 923980907 1 | 923980962 1 | 923981017 1 | 923981072 1 | 923981127 1 | 923981237 1 | 923981292 1 | 923981347 1 | 923981402 1 | 923981457 1 | 923981512 1 | 923981622 1 | 923981677 1 | 923981732 1 | 923981787 1 | 923981842 1 | 923981897 1 | 923981952 1 | 923982062 1 | 923982117 1 | 923982172 1 | 923982227 1 | 923982282 1 | 923982337 1 | 923982447 1 | 923982502 1 | 923982557 1 | 923982612 1 | 923982667 1 | 923982722 1 | 923982832 1 | 923982887 1 | 923982942 1 | 923982992 1 | 923983042 1 | 923983152 1 | 923983207 1 | 923983262 1 | 923983317 1 | 923983372 1 | 923983427 1 | 923983537 1 | 923983592 1 | 923983647 1 | 923983702 1 | 923983757 1 | 923983812 1 | 923983922 1 | 923983977 1 | 923984042 1 | 923984111 1 | 923984148 1 | 923984210 1 | 923984309 1 | 923984380 1 | 923984384 1 | 923984511 1 | 923984514 1 | 923984599 1 | 923984681 1 | 923984726 1 | 923984830 1 | 923984833 1 | 923984896 1 | 923984996 1 | 923985052 1 | 923985103 1 | 923985148 1 | 923985152 1 | 923985270 1 | 923985294 1 | 923985371 1 | 923985451 1 | 923985496 1 | 923985575 1 | 923985655 1 | 923985699 1 | 923985772 1 | 923985816 1 | 923985897 1 | 923985931 1 | 923986015 1 | 923986062 1 | 923986112 1 | 923986129 1 | 923986192 1 | 923986252 1 | 923986309 1 | 923986397 1 | 923986473 1 | 923986550 1 | 923986596 1 | 923986682 1 | 923986718 1 | 923986796 1 | 923986839 1 | 923986935 1 | 923986979 1 | 923987068 1 | 923987123 1 | 923987169 1 | 923987219 1 | 923987293 1 | 923987381 1 | 923987392 1 | 923987500 1 | 923987543 1 | 923987639 1 | 923987648 1 | 923987714 1 | 923987799 1 | 923987857 1 | 923987930 1 | 923988021 1 | 923988032 1 | 923988115 1 | 923988197 1 | 923988248 1 | 923988303 1 | 923988358 1 | 923988468 1 | 923988523 1 | 923988578 1 | 923988633 1 | 923988688 1 | 923988797 4 | 923988852 1 | 923988908 1 | 923988963 1 | 923989018 1 | 923989073 1 | 923989128 1 | 923989238 1 | 923989293 1 | 923989348 1 | 923989403 1 | 923989458 1 | 923989513 1 | 923989568 1 | 923989632 1 | 923989725 1 | 923989781 1 | 923989826 1 | 923989917 1 | 923989967 1 | 923990020 1 | 923990126 1 | 923990179 1 | 923990232 1 | 923990285 1 | 923990338 1 | 923990444 1 | 923990497 1 | 923990550 1 | 923990603 1 | 923990656 1 | 923990762 1 | 923990815 1 | 923990868 1 | 923990921 1 | 923991027 1 | 923991080 1 | 923991133 1 | 923991186 1 | 923991239 1 | 923991296 1 | 923991391 1 | 923991445 1 | 923991522 1 | 923991552 1 | 923991662 1 | 923991720 1 | 923991802 1 | 923991809 1 | 923991900 1 | 923991997 1 | 923992000 1 | 923992100 1 | 923992128 1 | 923992492 1 | 923992548 1 | 923992576 1 | 923992640 1 | 923992709 1 | 923992771 1 | 923992832 1 | 923992906 1 | 923993005 1 | 923993087 1 | 923993100 1 | 923993194 1 | 923993216 1 | 923993297 1 | 923993344 1 | 923993654 1 | 923993689 1 | 923993745 1 | 923993794 1 | 923993856 1 | 923993920 1 | 923993996 1 | 923994052 1 | 923994157 1 | 923994190 1 | 923994252 1 | 923994310 1 | 923994323 1 | 923994418 1 | 923994489 1 | 923994541 1 | 923994572 1 | 923994666 1 | 923994751 1 | 923994779 1 | 923994849 1 | 923994917 1 | 923994989 1 | 923995061 1 | 923995134 1 | 923995136 1 | 923995254 1 | 923995297 1 | 923995376 1 | 923995397 1 | 923995516 1 | 923995520 1 | 923995603 1 | 923995648 1 | 923995723 1 | 923995789 1 | 923995866 1 | 923995904 1 | 923995978 1 | 923996076 1 | 923996148 1 | 923996200 1 | 923996224 1 | 923996314 1 | 923996359 1 | 923996446 1 | 923996519 1 | 923996585 1 | 923996620 1 | 923996731 1 | 923996757 1 | 923996862 1 | 923996869 1 | 923996930 1 | 923997007 1 | 923997063 1 | 923997160 1 | 923997239 1 | 923997248 1 | 923997357 1 | 923997409 1 | 923997458 1 | 923997505 1 | 923997524 1 | 923997624 1 | 923997663 1 | 923997735 1 | 923997772 1 | 923997840 1 | 923997901 1 | 923997969 1 | 923998079 1 | 923998135 1 | 923998144 1 | 923998527 1 | 923998583 1 | 923998592 1 | 923998971 1 | 923999008 1 | 923999058 1 | 923999114 1 | 923999170 1 | 923999247 1 | 923999355 1 | 923999421 1 | 923999471 1 | 923999506 1 | 923999552 1 | 923999657 1 | 923999694 1 | 923999769 1 | 923999820 1 | 923999927 1 | 923999982 1 | 924000012 1 | 924000119 1 | 924000146 1 | 924000200 1 | 924000309 1 | 924000362 1 | 924000419 1 | 924000473 1 | 924000530 1 | 924000607 1 | 924000700 1 | 924000756 1 | 924000812 1 | 924000869 1 | 924000931 1 | 924000997 1 | 924001060 1 | 924001126 1 | 924001156 1 | 924001221 1 | 924001323 1 | 924001388 1 | 924001453 1 | 924001519 1 | 924001539 1 | 924001635 1 | 924001694 1 | 924001735 1 | 924001835 1 | 924001867 1 | 924001930 1 | 924001987 1 | 924002087 1 | 924002112 1 | 924002228 1 | 924002290 1 | 924002335 1 | 924002426 1 | 924002432 1 | 924002539 1 | 924002609 1 | 924002662 1 | 924002722 1 | 924002785 1 | 924002853 1 | 924002921 1 | 924002991 1 | 924003061 1 | 924003072 1 | 924003175 1 | 924003226 1 | 924003277 1 | 924003328 1 | 924003426 1 | 924003483 1 | 924003559 1 | 924003607 1 | 924003697 1 | 924003719 1 | 924003787 1 | 924003881 1 | 924003964 1 | 924003974 1 | 924004092 1 | 924004127 1 | 924004185 1 | 924004247 1 | 924004288 1 | 924004415 1 | 924004418 1 | 924004503 1 | 924004587 1 | 924004615 1 | 924004730 1 | 924004766 1 | 924004801 1 | 924004870 1 | 924004928 1 | 924004992 1 | 924005068 1 | 924005126 1 | 924005224 1 | 924005257 1 | 924005314 1 | 924005410 1 | 924005442 1 | 924005555 1 | 924005584 1 | 924005675 1 | 924005758 1 | 924005760 1 | 924005877 1 | 924005906 1 | 924006014 1 | 924006016 1 | 924006080 1 | 924006175 1 | 924006216 1 | 924006298 1 | 924006339 1 | 924006421 1 | 924006476 1 | 924006544 1 | 924006626 1 | 924006667 1 | 924006766 1 | 924006784 1 | 924006872 1 | 924006913 1 | 924006995 1 | 924007077 1 | 924007118 1 | 924007200 1 | 924007284 1 | 924007312 1 | 924007382 1 | 924007446 1 | 924007524 1 | 924007563 1 | 924007641 1 | 924007731 1 | 924007758 1 | 924007836 1 | 924007875 1 | 924007968 1 | 924008007 1 | 924008070 1 | 924008148 1 | 924008226 1 | 924008265 1 | 924008343 1 | 924008421 1 | 924008448 1 | 924008528 1 | 924008624 1 | 924008664 1 | 924008704 1 | 924008783 1 | 924008891 1 | 924008928 1 | 924008969 1 | 924009087 1 | 924009088 1 | 924009181 1 | 924009277 1 | 924009342 1 | 924009393 1 | 924009408 1 | 924009472 1 | 924009562 1 | 924009653 1 | 924009699 1 | 924009748 1 | 924009849 1 | 924009856 1 | 924009950 1 | 924010047 1 | 924010050 1 | 924010120 1 | 924010224 1 | 924010257 1 | 924010356 1 | 924010389 1 | 924010488 1 | 924010510 1 | 924010584 1 | 924010641 1 | 924010690 1 | 924010763 1 | 924010838 1 | 924010907 1 | 924010946 1 | 924011025 1 | 924011125 1 | 924011136 1 | 924011232 1 | 924011285 1 | 924011361 1 | 924011441 1 | 924011483 1 | 924011563 1 | 924011628 1 | 924011694 1 | 924011712 1 | 924011795 1 | 924011867 1 | 924011937 1 | 924011995 1 | 924012074 1 | 924012096 1 | 924012182 1 | 924012260 1 | 924012345 1 | 924012389 1 | 924012440 1 | 924012526 1 | 924012563 1 | 924012656 1 | 924012702 1 | 924012784 1 | 924012832 1 | 924012891 1 | 924012987 1 | 924013025 1 | 924013083 1 | 924013163 1 | 924013209 1 | 924013229 1 | 924013255 1 | 924013324 1 | 924013350 1 | 924013397 1 | 924013443 1 | 924013539 1 | 924013586 1 | 924013633 1 | 924013657 1 | 924013733 1 | 924013785 1 | 924013837 1 | 924013888 1 | 924013992 1 | 924014044 1 | 924014096 1 | 924014196 1 | 924014235 1 | 924014277 1 | 924014399 1 | 924014443 1 | 924014526 1 | 924014556 1 | 924014606 1 | 924014656 1 | 924014759 1 | 924014810 1 | 924014860 1 | 924014912 1 | 924015015 1 | 924015073 1 | 924015154 1 | 924015196 1 | 924015261 1 | 924015359 1 | 924015362 1 | 924015466 1 | 924015509 1 | 924015559 1 | 924015655 1 | 924015740 1 | 924015785 1 | 924015840 1 | 924015886 1 | 924015936 1 | 924016052 1 | 924016098 1 | 924016135 1 | 924016217 1 | 924016260 1 | 924016356 1 | 924016384 1 | 924016474 1 | 924016574 1 | 924016576 1 | 924016647 1 | 924016738 1 | 924016774 1 | 924016832 1 | 924016914 1 | 924016965 1 | 924017075 1 | 924017130 1 | 924017185 1 | 924017240 1 | 924017295 1 | 924017350 1 | 924017460 1 | 924017515 1 | 924017570 1 | 924017625 1 | 924017680 1 | 924017735 1 | 924017845 1 | 924017900 1 | 924017955 1 | 924018010 1 | 924018065 1 | 924018120 1 | 924018230 1 | 924018285 1 | 924018340 1 | 924018368 1 | 924018442 1 | 924018498 1 | 924018593 1 | 924018684 1 | 924018737 1 | 924018790 1 | 924018843 1 | 924018896 1 | 924018949 1 | 924019055 1 | 924019108 1 | 924019161 1 | 924019214 1 | 924019267 1 | 924019373 1 | 924019426 1 | 924019479 1 | 924019532 1 | 924019585 1 | 924019691 1 | 924019744 1 | 924019797 1 | 924019850 1 | 924019956 1 | 924020009 1 | 924020032 1 | 924020154 1 | 924020162 1 | 924020286 1 | 924020326 1 | 924020412 1 | 924020458 1 | 924020498 1 | 924020584 1 | 924020670 1 | 924020711 1 | 924020793 1 | 924020834 1 | 924020916 1 | 924020957 1 | 924021039 1 | 924021080 1 | 924021162 1 | 924021244 1 | 924021285 1 | 924021367 1 | 924021408 1 | 924021490 1 | 924021531 1 | 924021613 1 | 924021654 1 | 924021742 1 | 924021783 1 | 924021865 1 | 924021947 1 | 924021988 1 | 924022070 1 | 924022111 1 | 924022168 1 | 924022234 1 | 924022316 1 | 924022398 1 | 924022439 1 | 924022521 1 | 924022537 1 | 924022644 1 | 924022685 1 | 924022767 1 | 924022808 1 | 924022890 1 | 924022972 1 | 924023019 1 | 924023060 1 | 924023148 1 | 924023195 1 | 924023277 1 | 924023359 1 | 924023400 1 | 924023441 1 | 924023529 1 | 924023611 1 | 924023652 1 | 924023680 1 | 924023784 1 | 924023870 1 | 924023916 1 | 924023956 1 | 924024058 1 | 924024098 1 | 924024128 1 | 924024251 1 | 924024292 1 | 924024374 1 | 924024415 1 | 924024467 1 | 924024512 1 | 924024620 1 | 924024702 1 | 924024743 1 | 924024825 1 | 924024877 1 | 924024918 1 | 924024960 1 | 924025024 1 | 924025088 1 | 924025200 1 | 924025241 1 | 924025334 1 | 924025375 1 | 924025408 1 | 924025472 1 | 924025580 1 | 924025620 1 | 924025664 1 | 924025743 1 | 924025792 1 | 924025866 1 | 924025920 1 | 924025989 1 | 924026048 1 | 924026112 1 | 924026176 1 | 924026266 1 | 924026348 1 | 924026400 1 | 924026432 1 | 924026518 1 | 924026623 1 | 924026664 1 | 924026688 1 | 924026752 1 | 924026869 1 | 924026880 1 | 924026987 1 | 924027069 1 | 924027080 1 | 924027136 1 | 924027238 1 | 924027303 1 | 924027347 1 | 924027395 1 | 924027500 1 | 924027520 1 | 924027642 1 | 924027648 1 | 924027712 1 | 924027785 1 | 924027882 1 | 924027904 1 | 924027979 1 | 924028072 1 | 924028116 1 | 924028219 1 | 924028266 1 | 924028313 1 | 924028403 1 | 924028456 1 | 924028498 1 | 924028544 1 | 924028645 1 | 924028687 1 | 924028781 1 | 924028800 1 | 924028871 1 | 924028965 1 | 924029011 1 | 924029104 1 | 924029120 1 | 924029193 1 | 924029282 1 | 924029334 1 | 924029424 1 | 924029440 1 | 924029510 1 | 924029611 1 | 924029660 1 | 924029712 1 | 924029808 1 | 924029860 1 | 924029909 1 | 924029956 1 | 924030056 1 | 924030080 1 | 924030156 1 | 924030257 1 | 924030305 1 | 924030351 1 | 924030403 1 | 924030498 1 | 924030547 1 | 924030646 1 | 924030656 1 | 924030746 1 | 924030796 1 | 924030848 1 | 924030912 1 | 924031005 1 | 924031058 1 | 924031106 1 | 924031202 1 | 924031248 1 | 924031345 1 | 924031360 1 | 924031487 1 | 924031534 1 | 924031552 1 | 924031675 1 | 924031680 1 | 924031771 1 | 924031868 1 | 924031914 1 | 924031936 1 | 924032008 1 | 924032099 1 | 924032146 1 | 924032241 1 | 924032256 1 | 924032337 1 | 924032385 1 | 924032482 1 | 924032512 1 | 924032586 1 | 924032683 1 | 924032761 1 | 924032778 1 | 924032833 1 | 924032941 1 | 924032995 1 | 924033050 1 | 924033104 1 | 924033158 1 | 924033267 1 | 924033321 1 | 924033375 1 | 924033429 1 | 924033484 1 | 924033538 1 | 924033646 1 | 924033701 1 | 924033755 1 | 924033809 1 | 924033863 1 | 924033932 1 | 924034000 1 | 924034068 1 | 924034136 1 | 924034194 1 | 924034279 1 | 924034359 1 | 924034399 1 | 924034479 1 | 924034559 1 | 924034599 1 | 924034645 1 | 924034719 1 | 924034806 1 | 924034847 1 | 924034888 1 | 924035002 1 | 924035042 1 | 924035131 1 | 924035162 1 | 924035209 1 | 924035325 1 | 924035366 1 | 924035448 1 | 924035489 1 | 924035573 1 | 924035614 1 | 924035694 1 | 924035747 1 | 924035793 1 | 924035895 1 | 924035904 1 | 924036009 1 | 924036032 1 | 924036135 1 | 924036218 1 | 924036264 1 | 924036288 1 | 924036396 1 | 924036479 1 | 924036538 1 | 924036584 1 | 924036641 1 | 924036700 1 | 924036772 1 | 924036818 1 | 924036874 1 | 924036989 1 | 924037002 1 | 924037103 1 | 924037120 1 | 924037228 1 | 924037272 1 | 924037328 1 | 924037403 1 | 924037466 1 | 924037510 1 | 924037577 1 | 924037646 1 | 924037727 1 | 924037792 1 | 924037833 1 | 924037896 1 | 924037976 1 | 924038020 1 | 924038086 1 | 924038154 1 | 924038233 1 | 924038297 1 | 924038338 1 | 924038463 1 | 924038464 1 | 924038531 1 | 924038618 1 | 924038664 1 | 924038752 1 | 924038819 1 | 924038860 1 | 924038934 1 | 924038985 1 | 924039051 1 | 924039134 1 | 924039178 1 | 924039264 1 | 924039329 1 | 924039370 1 | 924039448 1 | 924039499 1 | 924039571 1 | 924039666 1 | 924039710 1 | 924039782 1 | 924039856 1 | 924039926 1 | 924039997 1 | 924040000 1 | 924040068 1 | 924040139 1 | 924040227 1 | 924040297 1 | 924040368 1 | 924040439 1 | 924040480 1 | 924040550 1 | 924040597 1 | 924040640 1 | 924040767 1 | 924040768 1 | 924040838 1 | 924040909 1 | 924040982 1 | 924041087 1 | 924041101 1 | 924041173 1 | 924041216 1 | 924041342 1 | 924041344 1 | 924041415 1 | 924041480 1 | 924041485 1 | 924041552 1 | 924041595 1 | 924041600 1 | 924041677 1 | 924041749 1 | 924041845 1 | 924041917 1 | 924041920 1 | 924041984 1 | 924042025 1 | 924042063 1 | 924042133 1 | 924042238 1 | 924042253 1 | 924042325 1 | 924042422 1 | 924042452 1 | 924042524 1 | 924042566 1 | 924042638 1 | 924042710 1 | 924042781 1 | 924042855 1 | 924042901 1 | 924042997 1 | 924043033 1 | 924043106 1 | 924043177 1 | 924043213 1 | 924043280 1 | 924043322 1 | 924043352 1 | 924043405 1 | 924043477 1 | 924043520 1 | 924043611 1 | 924043682 1 | 924043717 1 | 924043789 1 | 924043902 1 | 924043909 1 | 924043981 1 | 924044043 1 | 924044115 1 | 924044193 1 | 924044229 1 | 924044301 1 | 924044367 1 | 924044432 1 | 924044473 1 | 924044485 1 | 924044557 1 | 924044619 1 | 924044697 1 | 924044798 1 | 924044800 1 | 924044828 1 | 924044877 1 | 924044949 1 | 924045021 1 | 924045061 1 | 924045133 1 | 924045230 1 | 924045266 1 | 924045374 1 | 924045376 1 | 924045453 1 | 924045518 1 | 924045597 1 | 924045637 1 | 924045709 1 | 924045777 1 | 924045849 1 | 924045951 1 | 924045952 1 | 924046029 1 | 924046101 1 | 924046166 1 | 924046213 1 | 924046285 1 | 924046345 1 | 924046425 1 | 924046497 1 | 924046533 1 | 924046597 1 | 924046705 1 | 924046749 1 | 924046789 1 | 924046861 1 | 924046929 1 | 924047029 1 | 924047065 1 | 924047138 1 | 924047181 1 | 924047247 1 | 924047353 1 | 924047365 1 | 924047461 1 | 924047535 1 | 924047569 1 | 924047679 1 | 924047680 1 | 924047786 1 | 924047822 1 | 924047872 1 | 924047941 1 | 924048037 1 | 924048073 1 | 924048153 1 | 924048255 1 | 924048256 1 | 924048326 1 | 924048445 1 | 924048469 1 | 924048517 1 | 924048577 1 | 924048686 1 | 924048721 1 | 924048793 1 | 924048866 1 | 924048901 1 | 924049021 1 | 924049024 1 | 924049093 1 | 924049154 1 | 924049233 1 | 924049305 1 | 924049377 1 | 924049441 1 | 924049477 1 | 924049597 1 | 924049600 1 | 924049669 1 | 924049765 1 | 924049801 1 | 924049881 1 | 924049946 1 | 924049989 1 | 924050061 1 | 924050173 1 | 924050176 1 | 924050245 1 | 924050313 1 | 924050378 1 | 924050451 1 | 924050522 1 | 924050565 1 | 924050629 1 | 924050749 1 | 924050752 1 | 924050817 1 | 924050881 1 | 924050990 1 | 924051033 1 | 924051105 1 | 924051141 1 | 924051206 1 | 924051325 1 | 924051328 1 | 924051393 1 | 924051495 1 | 924051537 1 | 924051639 1 | 924051681 1 | 924051717 1 | 924051789 1 | 924051901 1 | 924051904 1 | 924051969 1 | 924052041 1 | 924052113 1 | 924052185 1 | 924052257 1 | 924052329 1 | 924052365 1 | 924052477 1 | 924052480 1 | 924052573 1 | 924052609 1 | 924052689 1 | 924052790 1 | 924052833 1 | 924052898 1 | 924052941 1 | 924053053 1 | 924053056 1 | 924053121 1 | 924053193 1 | 924053265 1 | 924053337 1 | 924053409 1 | 924053445 1 | 924053517 1 | 924053629 1 | 924053632 1 | 924053697 1 | 924053797 1 | 924053841 1 | 924053913 1 | 924053985 1 | 924054021 1 | 924054133 1 | 924054144 1 | 924054267 1 | 924054272 1 | 924054374 1 | 924054446 1 | 924054518 1 | 924054561 1 | 924054637 1 | 924054709 1 | 924054720 1 | 924054841 1 | 924054878 1 | 924054950 1 | 924054986 1 | 924055095 1 | 924055167 1 | 924055203 1 | 924055285 1 | 924055296 1 | 924055389 1 | 924055453 1 | 924055489 1 | 924055598 1 | 924055671 1 | 924055743 1 | 924055789 1 | 924055861 1 | 924055872 1 | 924055993 1 | 924056001 1 | 924056067 1 | 924056139 1 | 924056246 1 | 924056317 1 | 924056365 1 | 924056437 1 | 924056448 1 | 924056541 1 | 924056577 1 | 924056679 1 | 924056749 1 | 924056786 1 | 924056895 1 | 924056941 1 | 924057013 1 | 924057024 1 | 924057146 1 | 924057182 1 | 924057255 1 | 924057290 1 | 924057398 1 | 924057470 1 | 924057517 1 | 924057536 1 | 924057649 1 | 924057680 1 | 924057758 1 | 924057794 1 | 924057867 1 | 924057938 1 | 924058045 1 | 924058093 1 | 924058112 1 | 924058225 1 | 924058298 1 | 924058304 1 | 924058400 1 | 924058442 1 | 924058551 1 | 924058597 1 | 924058669 1 | 924058688 1 | 924058760 1 | 924058838 1 | 924058911 1 | 924058947 1 | 924059055 1 | 924059126 1 | 924059173 1 | 924059245 1 | 924059264 1 | 924059341 1 | 924059414 1 | 924059519 1 | 924059522 1 | 924059594 1 | 924059701 1 | 924059749 1 | 924059821 1 | 924059840 1 | 924059954 1 | 924060026 1 | 924060056 1 | 924060128 1 | 924060164 1 | 924060277 1 | 924060325 1 | 924060397 1 | 924060416 1 | 924060495 1 | 924060602 1 | 924060608 1 | 924060704 1 | 924060781 1 | 924060829 1 | 924060901 1 | 924060937 1 | 924061034 1 | 924061107 1 | 924061178 1 | 924061213 1 | 924061251 1 | 924061321 1 | 924061405 1 | 924061477 1 | 924061537 1 | 924061573 1 | 924061647 1 | 924061718 1 | 924061784 1 | 924061827 1 | 924061897 1 | 924062006 1 | 924062053 1 | 924062089 1 | 924062150 1 | 924062259 1 | 924062295 1 | 924062399 1 | 924062402 1 | 924062468 1 | 924062557 1 | 924062629 1 | 924062665 1 | 924062726 1 | 924062792 1 | 924062905 1 | 924062975 1 | 924063013 1 | 924063086 1 | 924063122 1 | 924063205 1 | 924063232 1 | 924063302 1 | 924063410 1 | 924063440 1 | 924063518 1 | 924063555 1 | 924063662 1 | 924063733 1 | 924063781 1 | 924063841 1 | 924063872 1 | 924063986 1 | 924064023 1 | 924064127 1 | 924064130 1 | 924064202 1 | 924064285 1 | 924064346 1 | 924064384 1 | 924064489 1 | 924064520 1 | 924064592 1 | 924064664 1 | 924064743 1 | 924064789 1 | 924064861 1 | 924064957 1 | 924064960 1 | 924065029 1 | 924065138 1 | 924065175 1 | 924065279 1 | 924065318 1 | 924065365 1 | 924065437 1 | 924065498 1 | 924065536 1 | 924065607 1 | 924065713 1 | 924065786 1 | 924065816 1 | 924065888 1 | 924065930 1 | 924066013 1 | 924066074 1 | 924066112 1 | 924066218 1 | 924066248 1 | 924066326 1 | 924066430 1 | 924066433 1 | 924066506 1 | 924066589 1 | 924066625 1 | 924066716 1 | 924066752 1 | 924066865 1 | 924066902 1 | 924067006 1 | 924067009 1 | 924067093 1 | 924067165 1 | 924067261 1 | 924067264 1 | 924067370 1 | 924067406 1 | 924067476 1 | 924067544 1 | 924067597 1 | 924067669 1 | 924067730 1 | 924067801 1 | 924067872 1 | 924067909 1 | 924067981 1 | 924068089 1 | 924068158 1 | 924068173 1 | 924068245 1 | 924068288 1 | 924068414 1 | 924068416 1 | 924068486 1 | 924068559 1 | 924068666 1 | 924068672 1 | 924068749 1 | 924068821 1 | 924068883 1 | 924068948 1 | 924069027 1 | 924069062 1 | 924069135 1 | 924069200 1 | 924069278 1 | 924069325 1 | 924069397 1 | 924069458 1 | 924069530 1 | 924069603 1 | 924069674 1 | 924069704 1 | 924069776 1 | 924069853 1 | 924069901 1 | 924069973 1 | 924070034 1 | 924070142 1 | 924070179 1 | 924070250 1 | 924070287 1 | 924070357 1 | 924070463 1 | 924070466 1 | 924070549 1 | 924070646 1 | 924070681 1 | 924070754 1 | 924070826 1 | 924070863 1 | 924070971 1 | 924071006 1 | 924071053 1 | 924071114 1 | 924071180 1 | 924071256 1 | 924071329 1 | 924071403 1 | 924071432 1 | 924071511 1 | 924071557 1 | 924071629 1 | 924071725 1 | 924071799 1 | 924071870 1 | 924071906 1 | 924071977 1 | 924072013 1 | 924072086 1 | 924072133 1 | 924072205 1 | 924072265 1 | 924072374 1 | 924072411 1 | 924072448 1 | 924072512 1 | 924072590 1 | 924072699 1 | 924072733 1 | 924072781 1 | 924072878 1 | 924072951 1 | 924073021 1 | 924073024 1 | 924073095 1 | 924073160 1 | 924073274 1 | 924073285 1 | 924073357 1 | 924073408 1 | 924073490 1 | 924073563 1 | 924073628 1 | 924073706 1 | 924073743 1 | 924073815 1 | 924073919 1 | 924073933 1 | 924073984 1 | 924074060 1 | 924074132 1 | 924074204 1 | 924074240 1 | 924074365 1 | 924074368 1 | 924074437 1 | 924074535 1 | 924074607 1 | 924074641 1 | 924074750 1 | 924074752 1 | 924074857 1 | 924074941 1 | 924074944 1 | 924075013 1 | 924075075 1 | 924075181 1 | 924075254 1 | 924075290 1 | 924075362 1 | 924075392 1 | 924075517 1 | 924075520 1 | 924075589 1 | 924075649 1 | 924075721 1 | 924075793 1 | 924075866 1 | 924075937 1 | 924076009 1 | 924076093 1 | 924076155 1 | 924076165 1 | 924076262 1 | 924076334 1 | 924076370 1 | 924076436 1 | 924076513 1 | 924076585 1 | 924076669 1 | 924076672 1 | 924076741 1 | 924076801 1 | 924076910 1 | 924076946 1 | 924077018 1 | 924077056 1 | 924077162 1 | 924077233 1 | 924077248 1 | 924077317 1 | 924077376 1 | 924077449 1 | 924077559 1 | 924077629 1 | 924077632 1 | 924077749 1 | 924077821 1 | 924077824 1 | 924077951 1 | 924077954 1 | 924078061 1 | 924078098 1 | 924078170 1 | 924078241 1 | 924078325 1 | 924078397 1 | 924078400 1 | 924078526 1 | 924078567 1 | 924078639 1 | 924078673 1 | 924078746 1 | 924078819 1 | 924078891 1 | 924078973 1 | 924078976 1 | 924079040 1 | 924079136 1 | 924079178 1 | 924079249 1 | 924079359 1 | 924079360 1 | 924079477 1 | 924079549 1 | 924079552 1 | 924079647 1 | 924079683 1 | 924079755 1 | 924079861 1 | 924079892 1 | 924079971 1 | 924080054 1 | 924080126 1 | 924080128 1 | 924080255 1 | 924080258 1 | 924080368 1 | 924080404 1 | 924080511 1 | 924080512 1 | 924080618 1 | 924080702 1 | 924080704 1 | 924080831 1 | 924080871 1 | 924080943 1 | 924081015 1 | 924081045 1 | 924081134 1 | 924081206 1 | 924081216 1 | 924081304 1 | 924081369 1 | 924081446 1 | 924081484 1 | 924081556 1 | 924081662 1 | 924081664 1 | 924081782 1 | 924081792 1 | 924081914 1 | 924081950 1 | 924081986 1 | 924082094 1 | 924082168 1 | 924082176 1 | 924082286 1 | 924082358 1 | 924082368 1 | 924082456 1 | 924082528 1 | 924082599 1 | 924082636 1 | 924082701 1 | 924082815 1 | 924082816 1 | 924082934 1 | 924082944 1 | 924083067 1 | 924083072 1 | 924083175 1 | 924083209 1 | 924083320 1 | 924083389 1 | 924083438 1 | 924083510 1 | 924083520 1 | 924083606 1 | 924083678 1 | 924083752 1 | 924083786 1 | 924083896 1 | 924083965 1 | 924084002 1 | 924084086 1 | 924084096 1 | 924084182 1 | 924084254 1 | 924084327 1 | 924084364 1 | 924084469 1 | 924084543 1 | 924084590 1 | 924084608 1 | 924084681 1 | 924084753 1 | 924084825 1 | 924084903 1 | 924084933 1 | 924085010 1 | 924085094 1 | 924085166 1 | 924085184 1 | 924085299 1 | 924085370 1 | 924085376 1 | 924085444 1 | 924085515 1 | 924085581 1 | 924085670 1 | 924085742 1 | 924085760 1 | 924085840 1 | 924085947 1 | 924085952 1 | 924086018 1 | 924086090 1 | 924086164 1 | 924086270 1 | 924086318 1 | 924086336 1 | 924086451 1 | 924086487 1 | 924086558 1 | 924086596 1 | 924086666 1 | 924086776 1 | 924086812 1 | 924086894 1 | 924086912 1 | 924086990 1 | 924087063 1 | 924087129 1 | 924087207 1 | 924087279 1 | 924087352 1 | 924087398 1 | 924087470 1 | 924087488 1 | 924087603 1 | 924087676 1 | 924087680 1 | 924087748 1 | 924087813 1 | 924087891 1 | 924087974 1 | 924088034 1 | 924088065 1 | 924088177 1 | 924088209 1 | 924088288 1 | 924088357 1 | 924088389 1 | 924088478 1 | 924088550 1 | 924088586 1 | 924088648 1 | 924088713 1 | 924088826 1 | 924088857 1 | 924088934 1 | 924088965 1 | 924089042 1 | 924089126 1 | 924089162 1 | 924089258 1 | 924089296 1 | 924089366 1 | 924089438 1 | 924089475 1 | 924089582 1 | 924089630 1 | 924089702 1 | 924089762 1 | 924089799 1 | 924089907 1 | 924089937 1 | 924090047 1 | 924090050 1 | 924090122 1 | 924090206 1 | 924090278 1 | 924090304 1 | 924090410 1 | 924090446 1 | 924090519 1 | 924090591 1 | 924090626 1 | 924090735 1 | 924090806 1 | 924090854 1 | 924090880 1 | 924090952 1 | 924091059 1 | 924091094 1 | 924091166 1 | 924091203 1 | 924091312 1 | 924091358 1 | 924091392 1 | 924091490 1 | 924091526 1 | 924091634 1 | 924091706 1 | 924091742 1 | 924091778 1 | 924091862 1 | 924091934 1 | 924092030 1 | 924092032 1 | 924092102 1 | 924092176 1 | 924092248 1 | 924092320 1 | 924092385 1 | 924092438 1 | 924092510 1 | 924092605 1 | 924092644 1 | 924092680 1 | 924092751 1 | 924092823 1 | 924092864 1 | 924092968 1 | 924093040 1 | 924093086 1 | 924093122 1 | 924093220 1 | 924093254 1 | 924093328 1 | 924093393 1 | 924093470 1 | 924093542 1 | 924093616 1 | 924093662 1 | 924093758 1 | 924093761 1 | 924093825 1 | 924093937 1 | 924093969 1 | 924094047 1 | 924094082 1 | 924094166 1 | 924094238 1 | 924094334 1 | 924094336 1 | 924094408 1 | 924094514 1 | 924094588 1 | 924094592 1 | 924094670 1 | 924094742 1 | 924094838 1 | 924094910 1 | 924094946 1 | 924094984 1 | 924095056 1 | 924095164 1 | 924095198 1 | 924095236 1 | 924095318 1 | 924095360 1 | 924095445 1 | 924095522 1 | 924095596 1 | 924095630 1 | 924095703 1 | 924095807 1 | 924095822 1 | 924095894 1 | 924095936 1 | 924096026 1 | 924096093 1 | 924096135 1 | 924096206 1 | 924096316 1 | 924096320 1 | 924096398 1 | 924096470 1 | 924096532 1 | 924096597 1 | 924096669 1 | 924096747 1 | 924096782 1 | 924096856 1 | 924096921 1 | 924096974 1 | 924097046 1 | 924097106 1 | 924097180 1 | 924097252 1 | 924097286 1 | 924097360 1 | 924097466 1 | 924097472 1 | 924097574 1 | 924097622 1 | 924097719 1 | 924097754 1 | 924097827 1 | 924097862 1 | 924097969 1 | 924098047 1 | 924098054 1 | 924098126 1 | 924098194 1 | 924098260 1 | 924098338 1 | 924098402 1 | 924098446 1 | 924098547 1 | 924098619 1 | 924098630 1 | 924098702 1 | 924098770 1 | 924098836 1 | 924098906 1 | 924098944 1 | 924099022 1 | 924099122 1 | 924099166 1 | 924099206 1 | 924099278 1 | 924099346 1 | 924099410 1 | 924099490 1 | 924099526 1 | 924099628 1 | 924099670 1 | 924099735 1 | 924099782 1 | 924099854 1 | 924099916 1 | 924100023 1 | 924100059 1 | 924100102 1 | 924100202 1 | 924100240 1 | 924100346 1 | 924100352 1 | 924100430 1 | 924100527 1 | 924100598 1 | 924100642 1 | 924100678 1 | 924100778 1 | 924100822 1 | 924100894 1 | 924100934 1 | 924101006 1 | 924101067 1 | 924101176 1 | 924101210 1 | 924101254 1 | 924101355 1 | 924101438 1 | 924101440 1 | 924101510 1 | 924101578 1 | 924101680 1 | 924101722 1 | 924101822 1 | 924101824 1 | 924101902 1 | 924102002 1 | 924102016 1 | 924102086 1 | 924102183 1 | 924102256 1 | 924102298 1 | 924102370 1 | 924102406 1 | 924102471 1 | 924102590 1 | 924102616 1 | 924102662 1 | 924102759 1 | 924102796 1 | 924102902 1 | 924102946 1 | 924102982 1 | 924103046 1 | 924103154 1 | 924103226 1 | 924103238 1 | 924103300 1 | 924103408 1 | 924103450 1 | 924103551 1 | 924103552 1 | 924103659 1 | 924103696 1 | 924103744 1 | 924103814 1 | 924103875 1 | 924103954 1 | 924104054 1 | 924104092 1 | 924104128 1 | 924104235 1 | 924104318 1 | 924104320 1 | 924104390 1 | 924104486 1 | 924104524 1 | 924104632 1 | 924104668 1 | 924104738 1 | 924104818 1 | 924104894 1 | 924104896 1 | 924104960 1 | 924105062 1 | 924105098 1 | 924105178 1 | 924105278 1 | 924105314 1 | 924105387 1 | 924105470 1 | 924105472 1 | 924105536 1 | 924105610 1 | 924105682 1 | 924105754 1 | 924105826 1 | 924105862 1 | 924105934 1 | 924106046 1 | 924106048 1 | 924106114 1 | 924106186 1 | 924106258 1 | 924106359 1 | 924106394 1 | 924106438 1 | 924106510 1 | 924106622 1 | 924106624 1 | 924106690 1 | 924106756 1 | 924106834 1 | 924106906 1 | 924106978 1 | 924107014 1 | 924107086 1 | 924107198 1 | 924107200 1 | 924107266 1 | 924107366 1 | 924107410 1 | 924107511 1 | 924107554 1 | 924107590 1 | 924107662 1 | 924107774 1 | 924107776 1 | 924107842 1 | 924107914 1 | 924107980 1 | 924108058 1 | 924108130 1 | 924108166 1 | 924108278 1 | 924108288 1 | 924108374 1 | 924108446 1 | 924108518 1 | 924108562 1 | 924108663 1 | 924108735 1 | 924108782 1 | 924108854 1 | 924108864 1 | 924108949 1 | 924108994 1 | 924109060 1 | 924109166 1 | 924109202 1 | 924109282 1 | 924109358 1 | 924109430 1 | 924109440 1 | 924109564 1 | 924109568 1 | 924109636 1 | 924109708 1 | 924109779 1 | 924109850 1 | 924109888 1 | 924110006 1 | 924110016 1 | 924110110 1 | 924110176 1 | 924110246 1 | 924110290 1 | 924110392 1 | 924110400 1 | 924110499 1 | 924110582 1 | 924110592 1 | 924110686 1 | 924110751 1 | 924110786 1 | 924110894 1 | 924110930 1 | 924111038 1 | 924111086 1 | 924111158 1 | 924111168 1 | 924111291 1 | 924111296 1 | 924111370 1 | 924111470 1 | 924111544 1 | 924111590 1 | 924111662 1 | 924111680 1 | 924111796 1 | 924111832 1 | 924111872 1 | 924111974 1 | 924112048 1 | 924112077 1 | 924112190 1 | 924112238 1 | 924112256 1 | 924112371 1 | 924112407 1 | 924112448 1 | 924112514 1 | 924112588 1 | 924112695 1 | 924112742 1 | 924112814 1 | 924112832 1 | 924112910 1 | 924112984 1 | 924113024 1 | 924113121 1 | 924113157 1 | 924113271 1 | 924113306 1 | 924113390 1 | 924113408 1 | 924113522 1 | 924113595 1 | 924113600 1 | 924113704 1 | 924113740 1 | 924113805 1 | 924113894 1 | 924113966 1 | 924113984 1 | 924114057 1 | 924114129 1 | 924114171 1 | 924114176 1 | 924114273 1 | 924114350 1 | 924114381 1 | 924114470 1 | 924114542 1 | 924114560 1 | 924114633 1 | 924114747 1 | 924114752 1 | 924114854 1 | 924114891 1 | 924114999 1 | 924115046 1 | 924115107 1 | 924115137 1 | 924115216 1 | 924115323 1 | 924115358 1 | 924115425 1 | 924115468 1 | 924115550 1 | 924115622 1 | 924115684 1 | 924115756 1 | 924115828 1 | 924115898 1 | 924115934 1 | 924115972 1 | 924116080 1 | 924116126 1 | 924116198 1 | 924116234 1 | 924116295 1 | 924116361 1 | 924116476 1 | 924116480 1 | 924116582 1 | 924116654 1 | 924116702 1 | 924116774 1 | 924116800 1 | 924116907 1 | 924116980 1 | 924117051 1 | 924117056 1 | 924117123 1 | 924117196 1 | 924117278 1 | 924117350 1 | 924117376 1 | 924117447 1 | 924117513 1 | 924117591 1 | 924117657 1 | 924117736 1 | 924117772 1 | 924117854 1 | 924117926 1 | 924117988 1 | 924118017 1 | 924118095 1 | 924118168 1 | 924118233 1 | 924118240 1 | 924118310 1 | 924118383 1 | 924118430 1 | 924118466 1 | 924118562 1 | 924118600 1 | 92411870
[...]
 1 | 926972608 1 | 926972672 1 | 926972736 1 | 926972800 1 | 926972864 1 | 926972928 1 | 926972992 1 | 926973056 1 | 926973120 1 | 926973184 1 | 926973248 1 | 926973312 1 | 926973376 1 | 926973440 1 | 926973504 1 | 926973568 1 | 926973632 1 | 926973696 1 | 926973760 1 | 926973824 1 | 926973888 1 | 926973952 1 | 926974016 1 | 926974080 1 | 926974144 1 | 926974208 1 | 926974272 1 | 926974336 1 | 926974400 1 | 926974464 1 | 926974528 1 | 926974592 1 | 926974656 1 | 926974720 1 | 926974784 1 | 926974848 1 | 926974912 1 | 926974976 1 | 926975424 1 | 926975488 1 | 926975552 1 | 926975616 1 | 926975680 1 | 926975744 1 | 926975808 1 | 926975872 1 | 926975936 1 | 926976000 1 | 926976064 1 | 926976128 1 | 926976192 1 | 926976256 1 | 926976320 1 | 926976384 1 | 926976448 1 | 926976512 1 | 926976576 1 | 926976640 1 | 926976704 1 | 926976768 1 | 926976832 1 | 926976896 1 | 926976960 1 | 926977024 1 | 926977088 1 | 926977152 1 | 926977216 1 | 926977280 1 | 926977344 1 | 926977408 1 | 926977472 1 | 926977536 1 | 926977600 1 | 926977664 1 | 926977728 1 | 926977792 1 | 926977856 1 | 926977920 1 | 926977984 1 | 926978048 1 | 926978112 1 | 926978176 1 | 926978240 1 | 926978304 1 | 926978368 1 | 926978432 1 | 926978496 1 | 926978560 1 | 926978624 1 | 926978688 1 | 926978752 1 | 926978816 1 | 926978880 1 | 926978944 1 | 926979008 1 | 926979072 1 | 926979136 1 | 926979200 1 | 926979264 1 | 926979328 1 | 926979392 1 | 926979456 1 | 926979520 1 | 926979584 1 | 926979648 1 | 926979712 1 | 926979776 1 | 926979840 1 | 926979904 1 | 926979968 1 | 926980032 1 | 926980096 1 | 926980160 1 | 926980224 1 | 926980288 1 | 926980352 1 | 926980416 1 | 926980480 1 | 926980544 1 | 926980608 1 | 926980672 1 | 926980736 1 | 926980800 1 | 926980864 1 | 926980928 1 | 926980992 1 | 926981056 1 | 926981120 1 | 926981184 1 | 926981248 1 | 926981312 1 | 926981376 1 | 926981440 1 | 926981504 1 | 926981568 1 | 926981632 1 | 926981696 1 | 926981760 1 | 926981824 1 | 926981888 1 | 926981952 1 | 926982016 1 | 926982080 1 | 926982144 1 | 926982208 1 | 926982272 1 | 926982336 1 | 926982400 1 | 926982464 1 | 926982528 1 | 926982616 1 | 926982656 1 | 926982720 1 | 926982784 1 | 926982848 1 | 926982912 1 | 926982976 1 | 926983040 1 | 926983104 1 | 926983168 1 | 926983232 1 | 926983296 1 | 926983360 1 | 926983424 1 | 926983488 1 | 926983552 1 | 926983616 1 | 926983680 1 | 926983744 1 | 926983808 1 | 926983872 1 | 926983936 1 | 926984000 1 | 926984064 1 | 926984128 1 | 926984192 1 | 926984256 1 | 926984320 1 | 926984384 1 | 926984448 1 | 926984512 1 | 926984576 1 | 926984640 1 | 926984704 1 | 926984768 1 | 926984832 1 | 926984896 1 | 926984960 1 | 926985024 1 | 926985088 1 | 926985152 1 | 926985216 1 | 926985280 1 | 926985344 1 | 926985408 1 | 926985472 1 | 926985536 1 | 926985600 1 | 926985664 1 | 926985728 1 | 926985792 1 | 926985856 1 | 926985920 1 | 926985984 1 | 926986048 1 | 926986112 1 | 926986176 1 | 926986240 1 | 926986304 1 | 926986368 1 | 926986432 1 | 926986496 1 | 926986560 1 | 926986624 1 | 926986688 1 | 926986756 1 | 926986816 1 | 926986880 1 | 926986944 1 | 926987008 1 | 926987072 1 | 926987136 1 | 926987200 1 | 926987264 1 | 926987328 1 | 926987392 1 | 926987456 1 | 926987520 1 | 926987584 1 | 926987648 1 | 926987712 1 | 926987776 1 | 926987840 1 | 926987904 1 | 926987968 1 | 926988032 1 | 926988096 1 | 926988160 1 | 926988224 1 | 926988288 1 | 926988352 1 | 926988416 1 | 926988480 1 | 926988544 1 | 926988608 1 | 926988672 1 | 926988736 1 | 926988800 1 | 926988864 1 | 926988928 1 | 926988992 1 | 926989056 1 | 926989120 1 | 926989184 1 | 926989248 1 | 926989312 1 | 926989376 1 | 926989440 1 | 926989504 1 | 926989568 1 | 926989632 1 | 926989696 1 | 926989760 1 | 926989824 1 | 926989888 1 | 926989952 1 | 926990016 1 | 926990080 1 | 926990144 1 | 926990208 1 | 926990272 1 | 926990336 1 | 926990400 1 | 926990464 1 | 926990528 1 | 926990592 1 | 926990656 1 | 926990720 1 | 926990784 1 | 926990848 1 | 926990912 1 | 926990976 1 | 926991040 1 | 926991104 1 | 926991168 1 | 926991232 1 | 926991296 1 | 926991360 1 | 926991424 1 | 926991488 1 | 926991552 1 | 926991616 1 | 926991680 1 | 926991744 1 | 926991808 1 | 926991872 1 | 926991936 1 | 926992000 1 | 926992064 1 | 926992128 1 | 926992192 1 | 926992256 1 | 926992320 1 | 926992384 1 | 926992448 1 | 926992512 1 | 926992576 1 | 926992640 1 | 926992704 1 | 926992768 1 | 926992832 1 | 926992896 1 | 926992960 1 | 926993024 1 | 926993088 1 | 926993152 1 | 926993216 1 | 926993280 1 | 926993344 1 | 926993408 1 | 926993472 1 | 926993536 1 | 926993600 1 | 926993664 1 | 926993728 1 | 926993792 1 | 926993856 1 | 926993920 1 | 926993984 1 | 926994048 1 | 926994112 1 | 926994176 1 | 926994240 1 | 926994304 1 | 926994368 1 | 926994432 1 | 926994496 1 | 926994560 1 | 926994624 1 | 926994688 1 | 926994752 1 | 926994816 1 | 926994880 1 | 926994944 1 | 926995008 1 | 926995072 1 | 926995136 1 | 926995200 1 | 926995264 1 | 926995328 1 | 926995392 1 | 926995456 1 | 926995520 1 | 926995584 1 | 926995648 1 | 926995712 1 | 926995776 1 | 926995840 1 | 926995904 1 | 926995968 1 | 926996032 1 | 926996096 1 | 926996160 1 | 926996224 1 | 926996288 1 | 926996352 1 | 926996416 1 | 926996480 1 | 926996544 1 | 926996608 1 | 926996672 1 | 926996736 1 | 926996800 1 | 926996864 1 | 926996928 1 | 926996992 1 | 926997056 1 | 926997120 1 | 926997184 1 | 926997248 1 | 926997312 1 | 926997376 1 | 926997440 1 | 926997504 1 | 926997568 1 | 926997632 1 | 926997696 1 | 926997760 1 | 926997824 1 | 926997888 1 | 926997952 1 | 926998016 1 | 926998080 1 | 926998144 1 | 926998208 1 | 926998272 1 | 926998336 1 | 926998400 1 | 926998464 1 | 926998536 1 | 926998592 1 | 926998656 1 | 926998720 1 | 926998784 1 | 926998848 1 | 926998912 1 | 926998976 1 | 926999040 1 | 926999104 1 | 926999168 1 | 926999232 1 | 926999296 1 | 926999360 1 | 926999424 1 | 926999488 1 | 926999552 1 | 926999616 1 | 926999680 1 | 926999744 1 | 926999808 1 | 926999872 1 | 926999936 1 | 927000000 1 | 927000064 1 | 927000128 1 | 927000192 1 | 927000256 1 | 927000320 1 | 927000384 1 | 927000448 1 | 927000512 1 | 927000576 1 | 927000640 1 | 927000704 1 | 927000768 1 | 927000832 1 | 927000896 1 | 927000960 1 | 927001024 1 | 927001088 1 | 927001152 1 | 927001216 1 | 927001280 1 | 927001344 1 | 927001408 1 | 927001472 1 | 927001536 1 | 927001600 1 | 927001664 1 | 927001728 1 | 927001792 1 | 927001856 1 | 927001920 1 | 927001984 1 | 927002048 1 | 927002112 1 | 927002176 1 | 927002240 1 | 927002304 1 | 927002368 1 | 927002432 1 | 927002496 1 | 927002560 1 | 927002624 1 | 927002688 1 | 927002752 1 | 927002816 1 | 927002880 1 | 927002944 1 | 927003008 1 | 927003072 1 | 927003136 1 | 927003200 1 | 927003264 1 | 927003328 1 | 927003392 1 | 927003456 1 | 927003520 1 | 927003584 1 | 927003648 1 | 927003712 1 | 927003776 1 | 927003840 1 | 927003904 1 | 927003968 1 | 927004032 1 | 927004096 1 | 927004160 1 | 927004224 1 | 927004288 1 | 927004352 1 | 927004416 1 | 927004480 1 | 927004544 1 | 927004608 1 | 927004672 1 | 927004736 1 | 927004800 1 | 927004864 1 | 927004928 1 | 927004992 1 | 927005056 1 | 927005120 1 | 927005184 1 | 927005248 1 | 927005312 1 | 927005376 1 | 927005440 1 | 927005504 1 | 927005568 1 | 927005632 1 | 927005696 1 | 927005760 1 | 927005824 1 | 927005888 1 | 927005952 1 | 927006016 1 | 927006080 1 | 927006144 1 | 927006208 1 | 927006272 1 | 927006336 1 | 927006400 1 | 927006464 1 | 927006528 1 | 927006592 1 | 927006692 1 | 927367488 1 | 927367552 1 | 927367616 1 | 927367680 1 | 927367744 1 | 927367808 1 | 927367872 1 | 927367936 1 | 927368000 1 | 927368064 1 | 927368128 1 | 927368192 1 | 927368256 1 | 927368320 1 | 927368384 1 | 927368448 1 | 927368512 1 | 927368576 1 | 927368636 1 | 927368640 1 | 927368700 1 | 927368704 1 | 927368768 1 | 927368832 1 | 927368896 1 | 927368960 1 | 927369024 1 | 927369088 1 | 927369152 1 | 927369216 1 | 927369280 1 | 927369344 1 | 927369408 1 | 927369472 1 | 927369536 1 | 927369600 1 | 927369664 1 | 927369724 1 | 927369728 1 | 927369792 1 | 927369856 1 | 927369920 1 | 927369984 1 | 927370048 1 | 927370112 1 | 927370176 1 | 927370240 1 | 927370304 1 | 927370368 1 | 927370432 1 | 927370496 1 | 927370560 1 | 927370624 1 | 927370684 2 | 927370688 1 | 927370752 1 | 927370816 1 | 927370880 1 | 927370944 1 | 927371008 1 | 927371072 1 | 927371136 1 | 927371200 1 | 927371264 1 | 927371328 1 | 927371392 1 | 927371456 1 | 927371520 1 | 927371584 1 | 927371648 1 | 927371712 1 | 927371776 1 | 927371840 1 | 927371904 1 | 927371968 1 | 927372032 1 | 927372096 1 | 927372160 1 | 927372224 1 | 927372288 1 | 927372352 1 | 927372416 1 | 927372480 1 | 927372544 1 | 927372608 1 | 927372672 1 | 927372736 1 | 927372800 1 | 927372864 1 | 927372928 1 | 927372992 1 | 927373056 1 | 927373120 1 | 927373184 1 | 927373248 1 | 927373312 1 | 927373376 1 | 927373440 1 | 927373504 1 | 927373568 1 | 927373632 1 | 927373696 1 | 927373760 1 | 927373824 1 | 927373888 1 | 927373952 1 | 927374016 1 | 927374080 1 | 927374144 1 | 927374208 1 | 927374272 1 | 927374336 1 | 927374400 1 | 927374464 1 | 927374528 1 | 927374592 1 | 927374656 1 | 927374720 1 | 927374784 1 | 927374848 1 | 927374912 1 | 927374976 1 | 927375040 1 | 927375104 1 | 927375168 1 | 927375232 1 | 927375296 1 | 927375360 1 | 927375424 1 | 927375488 1 | 927375552 1 | 927375616 1 | 927375680 1 | 927375744 1 | 927375808 1 | 927375872 1 | 927375936 1 | 927376000 1 | 927376064 1 | 927376128 1 | 927376192 1 | 927376256 1 | 927376320 1 | 927376384 1 | 927376448 1 | 927376512 1 | 927376576 1 | 927376640 1 | 927376704 1 | 927376768 1 | 927376832 1 | 927376896 1 | 927376960 1 | 927377024 1 | 927377088 1 | 927377152 1 | 927377216 1 | 927377280 1 | 927377344 1 | 927377408 1 | 927377472 1 | 927377536 1 | 927377600 1 | 927377664 1 | 927377728 1 | 927377792 1 | 927377856 1 | 927377920 1 | 927377984 1 | 927378048 1 | 927378112 1 | 927378176 1 | 927378240 1 | 927378304 1 | 927378368 1 | 927378432 1 | 927378496 1 | 927378560 1 | 927378624 1 | 927378688 1 | 927378752 1 | 927378816 1 | 927378880 1 | 927378944 1 | 927379008 1 | 927379072 1 | 927379136 1 | 927379200 1 | 927379264 1 | 927379328 1 | 927379392 1 | 927379456 1 | 927379520 1 | 927379584 1 | 927379648 1 | 927379712 1 | 927379776 1 | 927379840 1 | 927379904 1 | 927379968 1 | 927380032 1 | 927380096 1 | 927380160 1 | 927380224 1 | 927380288 1 | 927380352 1 | 927380416 1 | 927380480 1 | 927380544 1 | 927380608 1 | 927380672 1 | 927380736 1 | 927380800 1 | 927380864 1 | 927380928 1 | 927380992 1 | 927381056 1 | 927381120 1 | 927381184 1 | 927381248 1 | 927381312 1 | 927381376 1 | 927381440 1 | 927381504 1 | 927381568 1 | 927381632 1 | 927381696 1 | 927381760 1 | 927381824 1 | 927381888 1 | 927381952 1 | 927382016 1 | 927382080 1 | 927382144 1 | 927382208 1 | 927382272 1 | 927382336 1 | 927382400 1 | 927382464 1 | 927382528 1 | 927382592 1 | 927382656 1 | 927382720 1 | 927382784 1 | 927382848 1 | 927382912 1 | 927382976 1 | 927383040 1 | 927383104 1 | 927383168 1 | 927383232 1 | 927383296 1 | 927383360 1 | 927383424 1 | 927383488 1 | 927383552 1 | 927383616 1 | 927383680 1 | 927383744 1 | 927383808 1 | 927383872 1 | 927383936 1 | 927384000 1 | 927384064 1 | 927384128 1 | 927384192 1 | 927384256 1 | 927384320 1 | 927384384 1 | 927384448 1 | 927384512 1 | 927384576 1 | 927384640 1 | 927384704 1 | 927384768 1 | 927384832 1 | 927384896 1 | 927384960 1 | 927385024 1 | 927385088 1 | 927385152 1 | 927385216 1 | 927385280 1 | 927385344 1 | 927385408 1 | 927385472 1 | 927385536 1 | 927385600 1 | 927385664 1 | 927385728 1 | 927385792 1 | 927385856 1 | 927385920 1 | 927385984 1 | 927386048 1 | 927386112 1 | 927386176 1 | 927386240 1 | 927386304 1 | 927386368 1 | 927386432 1 | 927386496 1 | 927386560 1 | 927386624 1 | 927386688 1 | 927386752 1 | 927386816 1 | 927386880 1 | 927386944 1 | 927387008 1 | 927387072 1 | 927387136 1 | 927387200 1 | 927387264 1 | 927387328 1 | 927387392 1 | 927387456 1 | 927387520 1 | 927387584 1 | 927387648 1 | 927387712 1 | 927387776 1 | 927387840 1 | 927387904 1 | 927387968 1 | 927388032 1 | 927388096 1 | 927388160 1 | 927388224 1 | 927388288 1 | 927388352 1 | 927388416 1 | 927388480 1 | 927388544 1 | 927388608 1 | 927388672 1 | 927388736 1 | 927388800 1 | 927388864 1 | 927388928 1 | 927388992 1 | 927389056 1 | 927389120 1 | 927389184 1 | 927389248 1 | 927389312 1 | 927389376 1 | 927389440 1 | 927389504 1 | 927389568 1 | 927389632 1 | 927389696 1 | 927389760 1 | 927389824 1 | 927389888 1 | 927389952 1 | 927390016 1 | 927390080 1 | 927390144 1 | 927390208 1 | 927390272 1 | 927390336 1 | 927390400 1 | 927390464 1 | 927390528 1 | 927390592 1 | 927390656 1 | 927390720 1 | 927390784 1 | 927390848 1 | 927390912 1 | 927390976 1 | 927391040 1 | 927391104 1 | 927391168 1 | 927391232 1 | 927391296 1 | 927391360 1 | 927391424 1 | 927391488 1 | 927391552 1 | 927391616 1 | 927391680 1 | 927391744 1 | 927391808 1 | 927391872 1 | 927391936 1 | 927392000 1 | 927392064 1 | 927392128 1 | 927392192 1 | 927392256 1 | 927392320 1 | 927392384 1 | 927392448 1 | 927392512 1 | 927392576 1 | 927392640 1 | 927392704 1 | 927392768 1 | 927392832 1 | 927392896 1 | 927392960 1 | 927393024 1 | 927393088 1 | 927393152 1 | 927393216 1 | 927393280 1 | 927393344 1 | 927393408 1 | 927393472 1 | 927393536 1 | 927393600 1 | 927393664 1 | 927393728 1 | 927393792 1 | 927393856 1 | 927393920 1 | 927393984 1 | 927394048 1 | 927394112 1 | 927394176 1 | 927394240 1 | 927394304 1 | 927394368 1 | 927394432 1 | 927394496 1 | 927394560 1 | 927394624 1 | 927394688 1 | 927394752 1 | 927394816 1 | 927394880 1 | 927394944 1 | 927395008 1 | 927395072 1 | 927395136 1 | 927395200 1 | 927395264 1 | 927395328 1 | 927395392 1 | 927395456 1 | 927395520 1 | 927395584 1 | 927395648 1 | 927395712 1 | 927395776 1 | 927395840 1 | 927395904 1 | 927395968 1 | 927396032 1 | 927396096 1 | 927396160 1 | 927396224 1 | 927396288 1 | 927396352 1 | 927396416 1 | 927396480 1 | 927396544 1 | 927396608 1 | 927396672 1 | 927396736 1 | 927396800 1 | 927396864 1 | 927396928 1 | 927396992 1 | 927397056 1 | 927397120 1 | 927397184 1 | 927397248 1 | 927397312 1 | 927397376 1 | 927397440 1 | 927397504 1 | 927397568 1 | 927397632 1 | 927397696 1 | 927397760 1 | 927397824 1 | 927397888 1 | 927397952 1 | 927398016 1 | 927398080 1 | 927398144 1 | 927398208 1 | 927398272 1 | 927398336 1 | 927398400 1 | 927398464 1 | 927398528 1 | 927398592 1 | 927398656 1 | 927398720 1 | 927398784 1 | 927398848 1 | 927398912 1 | 927497724 1 | 927512960 1 | 927513024 1 | 927513984 1 | 927514048 1 | 927527296 1 | 927527360 1 | 927528320 1 | 927528388 1 | 927529344 1 | 927529408 1 | 927530368 1 | 927530432 1 | 927531008 1 | 927531072 1 | 927531136 1 | 927531200 1 | 927531264 1 | 927531328 1 | 927531392 1 | 927531456 1 | 927531520 1 | 927531584 1 | 927531648 1 | 927531712 1 | 927531776 1 | 927531840 1 | 927531904 1 | 927531968 1 | 927532032 1 | 927532416 1 | 927532480 1 | 927533440 1 | 927533508 1 | 927534080 1 | 927534464 1 | 927534528 1 | 927539584 1 | 927539648 1 | 927540608 1 | 927540672 1 | 927541632 1 | 927541696 1 | 927542656 1 | 927542720 1 | 927543300 1 | 927543360 1 | 927543424 1 | 1460466880 1 | 

















Heartbeat CPU 0 instructions: 300000000 cycles: 174333227 heartbeat IPC: 1.81476 cumulative IPC: 1.56369 (Simulation time: 0 hr 12 min 0 sec) 
Finished CPU 0 instructions: 250000004 cycles: 159877873 cumulative IPC: 1.56369 (Simulation time: 0 hr 12 min 0 sec) 

ChampSim completed all CPUs

Region of Interest Statistics

CPU 0 cumulative IPC: 1.56369 instructions: 250000004 cycles: 159877873
cpu0_DTLB TOTAL     ACCESS:   56758248  HIT:   55994334  MISS:     763914
cpu0_DTLB LOAD      ACCESS:   41485928  HIT:   41046880  MISS:     439048
cpu0_DTLB RFO       ACCESS:   15272320  HIT:   14947454  MISS:     324866
cpu0_DTLB PREFETCH  ACCESS:          0  HIT:          0  MISS:          0
cpu0_DTLB WRITEBACK ACCESS:          0  HIT:          0  MISS:          0
cpu0_DTLB TRANSLATION ACCESS:          0  HIT:          0  MISS:          0
cpu0_DTLB PREFETCH  REQUESTED:          0  ISSUED:          0  USEFUL:          0  USELESS:          0
cpu0_DTLB AVERAGE MISS LATENCY: 9.17412 cycles
cpu0_ITLB TOTAL     ACCESS:   18887102  HIT:   18887094  MISS:          8
cpu0_ITLB LOAD      ACCESS:   18887102  HIT:   18887094  MISS:          8
cpu0_ITLB RFO       ACCESS:          0  HIT:          0  MISS:          0
cpu0_ITLB PREFETCH  ACCESS:          0  HIT:          0  MISS:          0
cpu0_ITLB WRITEBACK ACCESS:          0  HIT:          0  MISS:          0
cpu0_ITLB TRANSLATION ACCESS:          0  HIT:          0  MISS:          0
cpu0_ITLB PREFETCH  REQUESTED:          0  ISSUED:          0  USEFUL:          0  USELESS:          0
cpu0_ITLB AVERAGE MISS LATENCY: 269.75 cycles
cpu0_L1I TOTAL     ACCESS:    2623562  HIT:    2623299  MISS:        263
cpu0_L1I LOAD      ACCESS:    2623562  HIT:    2623299  MISS:        263
cpu0_L1I RFO       ACCESS:          0  HIT:          0  MISS:          0
cpu0_L1I PREFETCH  ACCESS:          0  HIT:          0  MISS:          0
cpu0_L1I WRITEBACK ACCESS:          0  HIT:          0  MISS:          0
cpu0_L1I TRANSLATION ACCESS:          0  HIT:          0  MISS:          0
cpu0_L1I PREFETCH  REQUESTED:          0  ISSUED:          0  USEFUL:          0  USELESS:          0
cpu0_L1I AVERAGE MISS LATENCY: 204.103 cycles
cpu0_STLB TOTAL     ACCESS:     763922  HIT:     763494  MISS:        428
cpu0_STLB LOAD      ACCESS:     439056  HIT:     438774  MISS:        282
cpu0_STLB RFO       ACCESS:     324866  HIT:     324720  MISS:        146
cpu0_STLB PREFETCH  ACCESS:          0  HIT:          0  MISS:          0
cpu0_STLB WRITEBACK ACCESS:          0  HIT:          0  MISS:          0
cpu0_STLB TRANSLATION ACCESS:          0  HIT:          0  MISS:          0
cpu0_STLB PREFETCH  REQUESTED:          0  ISSUED:          0  USEFUL:          0  USELESS:          0
cpu0_STLB AVERAGE MISS LATENCY: 214.36 cycles
cpu0_L1D TOTAL     ACCESS:   64634742  HIT:   61568204  MISS:    3066538
cpu0_L1D LOAD      ACCESS:   38302980  HIT:   35771078  MISS:    2531902
cpu0_L1D RFO       ACCESS:   26331340  HIT:   25796822  MISS:     534518
cpu0_L1D PREFETCH  ACCESS:          0  HIT:          0  MISS:          0
cpu0_L1D WRITEBACK ACCESS:          0  HIT:          0  MISS:          0
cpu0_L1D TRANSLATION ACCESS:        422  HIT:        304  MISS:        118
cpu0_L1D PREFETCH  REQUESTED:          0  ISSUED:          0  USEFUL:          0  USELESS:          0
cpu0_L1D AVERAGE MISS LATENCY: 55.6941 cycles
cpu0_L2C TOTAL     ACCESS:    3812273  HIT:    2614608  MISS:    1197665
cpu0_L2C LOAD      ACCESS:    2532066  HIT:    1787004  MISS:     745062
cpu0_L2C RFO       ACCESS:     534491  HIT:      82279  MISS:     452212
cpu0_L2C PREFETCH  ACCESS:          0  HIT:          0  MISS:          0
cpu0_L2C WRITEBACK ACCESS:     745598  HIT:     745239  MISS:        359
cpu0_L2C TRANSLATION ACCESS:        118  HIT:         86  MISS:         32
cpu0_L2C PREFETCH  REQUESTED:          0  ISSUED:          0  USEFUL:          0  USELESS:          0
cpu0_L2C AVERAGE MISS LATENCY: 114.33 cycles
LLC TOTAL     ACCESS:    1722096  HIT:    1499183  MISS:     222913
LLC LOAD      ACCESS:     743119  HIT:     635881  MISS:     107238
LLC RFO       ACCESS:     452189  HIT:     336655  MISS:     115534
LLC PREFETCH  ACCESS:          0  HIT:          0  MISS:          0
LLC WRITEBACK ACCESS:     526756  HIT:     526625  MISS:        131
LLC TRANSLATION ACCESS:         32  HIT:         22  MISS:         10
LLC PREFETCH  REQUESTED:          0  ISSUED:          0  USEFUL:          0  USELESS:          0
LLC AVERAGE MISS LATENCY: 501.631 cycles

DRAM Statistics
 CHANNEL 0
 RQ ROW_BUFFER_HIT:      43514  ROW_BUFFER_MISS:     176910
 DBUS AVG_CONGESTED_CYCLE:     3.9779
 WQ ROW_BUFFER_HIT:      16430  ROW_BUFFER_MISS:     137636  FULL:        208


CPU 0 Branch Prediction Accuracy: 93.3019% MPKI: 9.9508 Average ROB Occupancy at Mispredict: 47.8344
Branch type MPKI
BRANCH_DIRECT_JUMP: 0.00016
BRANCH_INDIRECT: 0
BRANCH_CONDITIONAL: 9.94991
BRANCH_DIRECT_CALL: 0.000364
BRANCH_INDIRECT_CALL: 0
BRANCH_RETURN: 0.00036

